(PID.TID 0000.0001) 
(PID.TID 0000.0001) // ======================================================
(PID.TID 0000.0001) //                      MITgcm UV
(PID.TID 0000.0001) //                      =========
(PID.TID 0000.0001) // ======================================================
(PID.TID 0000.0001) // execution environment starting up...
(PID.TID 0000.0001) 
(PID.TID 0000.0001) // MITgcmUV version:  checkpoint66j
(PID.TID 0000.0001) // Build user:        whitefar
(PID.TID 0000.0001) // Build host:        kahutea
(PID.TID 0000.0001) // Build date:        Thu Nov 26 13:39:15 NZDT 2020
(PID.TID 0000.0001) 
(PID.TID 0000.0001) // =======================================================
(PID.TID 0000.0001) // Execution Environment parameter file "eedata"
(PID.TID 0000.0001) // =======================================================
(PID.TID 0000.0001) ># Example "eedata" file
(PID.TID 0000.0001) ># Lines beginning "#" are comments
(PID.TID 0000.0001) ># nTx - No. threads per process in X
(PID.TID 0000.0001) ># nTy - No. threads per process in Y
(PID.TID 0000.0001) > &EEPARMS
(PID.TID 0000.0001) > /
(PID.TID 0000.0001) ># Note: Some systems use & as the
(PID.TID 0000.0001) ># namelist terminator. Other systems
(PID.TID 0000.0001) ># use a / character (as shown here).
(PID.TID 0000.0001) 
(PID.TID 0000.0001) // =======================================================
(PID.TID 0000.0001) // Computational Grid Specification ( see files "SIZE.h" )
(PID.TID 0000.0001) //                                  ( and "eedata"       )
(PID.TID 0000.0001) // =======================================================
(PID.TID 0000.0001)      nPx =    4 ; /* No. processes in X */
(PID.TID 0000.0001)      nPy =    4 ; /* No. processes in Y */
(PID.TID 0000.0001)      nSx =    1 ; /* No. tiles in X per process */
(PID.TID 0000.0001)      nSy =    1 ; /* No. tiles in Y per process */
(PID.TID 0000.0001)      sNx =   10 ; /* Tile size in X */
(PID.TID 0000.0001)      sNy =    5 ; /* Tile size in Y */
(PID.TID 0000.0001)      OLx =    5 ; /* Tile overlap distance in X */
(PID.TID 0000.0001)      OLy =    5 ; /* Tile overlap distance in Y */
(PID.TID 0000.0001)      nTx =    1 ; /* No. threads in X per process */
(PID.TID 0000.0001)      nTy =    1 ; /* No. threads in Y per process */
(PID.TID 0000.0001)       Nr =   60 ; /* No. levels in the vertical   */
(PID.TID 0000.0001)       Nx =   40 ; /* Total domain size in X ( = nPx*nSx*sNx ) */
(PID.TID 0000.0001)       Ny =   20 ; /* Total domain size in Y ( = nPy*nSy*sNy ) */
(PID.TID 0000.0001)   nTiles =    1 ; /* Total no. tiles per process ( = nSx*nSy ) */
(PID.TID 0000.0001)   nProcs =   16 ; /* Total no. processes ( = nPx*nPy ) */
(PID.TID 0000.0001) nThreads =    1 ; /* Total no. threads per process ( = nTx*nTy ) */
(PID.TID 0000.0001) usingMPI =    T ; /* Flag used to control whether MPI is in use */
(PID.TID 0000.0001)                   /*  note: To execute a program with MPI calls */
(PID.TID 0000.0001)                   /*  it must be launched appropriately e.g     */
(PID.TID 0000.0001)                   /*  "mpirun -np 64 ......"                    */
(PID.TID 0000.0001) useCoupler=    F ;/* Flag used to control communications with   */
(PID.TID 0000.0001)                   /*  other model components, through a coupler */
(PID.TID 0000.0001) debugMode =    F ; /* print debug msg. (sequence of S/R calls)  */
(PID.TID 0000.0001) printMapIncludesZeros=    F ; /* print zeros in Std.Output maps */
(PID.TID 0000.0001) maxLengthPrt1D=   65 /* maxLength of 1D array printed to StdOut */
(PID.TID 0000.0001) 
(PID.TID 0000.0001) ======= Starting MPI parallel Run =========
(PID.TID 0000.0001)  My Processor Name (len:  7 ) = kahutea
(PID.TID 0000.0001)  Located at (  0,  0) on processor grid (0:  3,0:  3)
(PID.TID 0000.0001)  Origin at  (     1,     1) on global grid (1:    40,1:    20)
(PID.TID 0000.0001)  North neighbor = processor 0001
(PID.TID 0000.0001)  South neighbor = processor 0003
(PID.TID 0000.0001)   East neighbor = processor 0004
(PID.TID 0000.0001)   West neighbor = processor 0012
(PID.TID 0000.0001) // ======================================================
(PID.TID 0000.0001) // Mapping of tiles to threads
(PID.TID 0000.0001) // ======================================================
(PID.TID 0000.0001) // -o- Thread   1, tiles (   1:   1,   1:   1)
(PID.TID 0000.0001) 
(PID.TID 0000.0001) // ======================================================
(PID.TID 0000.0001) // Tile <-> Tile connectvity table
(PID.TID 0000.0001) // ======================================================
(PID.TID 0000.0001) // Tile number: 000001 (process no. = 000000)
(PID.TID 0000.0001) //        WEST: Tile = 000004, Process = 000012, Comm = messages
(PID.TID 0000.0001) //                bi = 000001, bj = 000001
(PID.TID 0000.0001) //        EAST: Tile = 000002, Process = 000004, Comm = messages
(PID.TID 0000.0001) //                bi = 000001, bj = 000001
(PID.TID 0000.0001) //       SOUTH: Tile = 000013, Process = 000003, Comm = messages
(PID.TID 0000.0001) //                bi = 000001, bj = 000001
(PID.TID 0000.0001) //       NORTH: Tile = 000005, Process = 000001, Comm = messages
(PID.TID 0000.0001) //                bi = 000001, bj = 000001
(PID.TID 0000.0001) 
(PID.TID 0000.0001)  INI_PARMS: opening model parameter file "data"
(PID.TID 0000.0001)  OPEN_COPY_DATA_FILE: opening file data
(PID.TID 0000.0001) // =======================================================
(PID.TID 0000.0001) // Parameter file "data"
(PID.TID 0000.0001) // =======================================================
(PID.TID 0000.0001) ># ====================
(PID.TID 0000.0001) ># | Model parameters |
(PID.TID 0000.0001) ># ====================
(PID.TID 0000.0001) >#
(PID.TID 0000.0001) ># Continuous equation parameters
(PID.TID 0000.0001) > &PARM01
(PID.TID 0000.0001) > Tref = 60*-2.1,
(PID.TID 0000.0001) > Sref = 60*34.5,
(PID.TID 0000.0001) >
(PID.TID 0000.0001) > viscAz=1.E-4,
(PID.TID 0000.0001) > no_slip_sides=.FALSE.,
(PID.TID 0000.0001) > no_slip_bottom=.true.,
(PID.TID 0000.0001) > diffKzT=5.E-6,
(PID.TID 0000.0001) > diffKzS=5.E-6,
(PID.TID 0000.0001) > rhoConst=1030.,
(PID.TID 0000.0001) > rhoConst= 1.028900e+03,
(PID.TID 0000.0001) > rhoNil= 1.028900e+03,
(PID.TID 0000.0001) > rhoConstFresh=999.8,
(PID.TID 0000.0001) > eosType='JMD95Z',
(PID.TID 0000.0001) > hFacMin=0.3,
(PID.TID 0000.0001) > hFacInf=0.1,
(PID.TID 0000.0001) > hFacSup=5.0,
(PID.TID 0000.0001) ># select_rStar=2,
(PID.TID 0000.0001) ># nonlinFreeSurf=4,
(PID.TID 0000.0001) > implicitDiffusion=.TRUE.,
(PID.TID 0000.0001) > implicitViscosity=.TRUE.,
(PID.TID 0000.0001) > viscC4Leith=2.0,
(PID.TID 0000.0001) > viscC4Leithd=2.0,
(PID.TID 0000.0001) > useAreaViscLength=.TRUE.,
(PID.TID 0000.0001) > sideDragFactor=0.,
(PID.TID 0000.0001) > highOrderVorticity  = .TRUE.,
(PID.TID 0000.0001) > bottomDragQuadratic=2.1E-3,
(PID.TID 0000.0001) > tempAdvScheme=7,
(PID.TID 0000.0001) > saltAdvScheme=7,
(PID.TID 0000.0001) > StaggerTimeStep=.TRUE.,
(PID.TID 0000.0001) > multiDimAdvection=.TRUE.,
(PID.TID 0000.0001) > vectorInvariantMomentum=.TRUE.,
(PID.TID 0000.0001) > implicitFreeSurface=.TRUE.,
(PID.TID 0000.0001) >  exactConserv=.TRUE.,
(PID.TID 0000.0001) >  convertFW2Salt = 33.4,
(PID.TID 0000.0001) ># selectBotDragQuadr=2,
(PID.TID 0000.0001) ># useCDScheme = .TRUE.,
(PID.TID 0000.0001) ># useJamartWetPoints=.TRUE.,
(PID.TID 0000.0001) ># HeatCapacity_Cp = 3974.,
(PID.TID 0000.0001) ># gravity=9.81,
(PID.TID 0000.0001) ># implicitFreeSurface=.TRUE.,
(PID.TID 0000.0001) > readBinaryPrec=64,
(PID.TID 0000.0001) >#writeBinaryPrec=64,
(PID.TID 0000.0001) > useSingleCpuIO=.TRUE.,
(PID.TID 0000.0001) > debugLevel=-1,
(PID.TID 0000.0001) > plotLevel =0,
(PID.TID 0000.0001) > /
(PID.TID 0000.0001) >
(PID.TID 0000.0001) ># Elliptic solver parameters
(PID.TID 0000.0001) > &PARM02
(PID.TID 0000.0001) > cg2dMaxIters=1000,
(PID.TID 0000.0001) > cg2dTargetResidual=1.E-13,
(PID.TID 0000.0001) > cg3dMaxIters=400,
(PID.TID 0000.0001) > cg3dTargetResidual=1.E-13,
(PID.TID 0000.0001) > /
(PID.TID 0000.0001) >
(PID.TID 0000.0001) ># Time stepping parameters
(PID.TID 0000.0001) > &PARM03
(PID.TID 0000.0001) > nIter0=0,
(PID.TID 0000.0001) > endTime=31557600.0,
(PID.TID 0000.0001) > deltaT=80,
(PID.TID 0000.0001) > abEps=0.1,
(PID.TID 0000.0001) > momDissip_In_AB=.FALSE.,
(PID.TID 0000.0001) >#cAdjFreq = -1.,
(PID.TID 0000.0001) >#tauCD = 400000.0,
(PID.TID 0000.0001) > pChkptFreq=2592000.0,
(PID.TID 0000.0001) > chkptFreq=2592000.0,
(PID.TID 0000.0001) > dumpFreq=2592000.0,
(PID.TID 0000.0001) > monitorSelect=2,
(PID.TID 0000.0001) > monitorFreq=259200.0,
(PID.TID 0000.0001) ># for time dependent open boundary conditions, activate the following 3 lines:
(PID.TID 0000.0001) > periodicExternalForcing=.TRUE.,
(PID.TID 0000.0001) > externForcingPeriod=86400.0,
(PID.TID 0000.0001) > externForcingCycle =1036800.0,
(PID.TID 0000.0001) ># externForcingPeriod=100.0,
(PID.TID 0000.0001) ># externForcingCycle =1200.0,
(PID.TID 0000.0001) >
(PID.TID 0000.0001) >
(PID.TID 0000.0001) > /
(PID.TID 0000.0001) >
(PID.TID 0000.0001) ># Gridding parameters
(PID.TID 0000.0001) > &PARM04
(PID.TID 0000.0001) > usingCartesianGrid=.TRUE.,
(PID.TID 0000.0001) > dXspacing=230.6664021767681,
(PID.TID 0000.0001) > dYspacing=84.21052631578948,
(PID.TID 0000.0001) > ygOrigin = -80.0,
(PID.TID 0000.0001) ># usingSphericalPolarGrid=.TRUE.,
(PID.TID 0000.0001) ># delX=50*0.1,
(PID.TID 0000.0001) ># delY=50*0.1,
(PID.TID 0000.0001) > delZ=60*11.0,
(PID.TID 0000.0001) >#-
(PID.TID 0000.0001) > pCellMix_select= 20,
(PID.TID 0000.0001) > pCellMix_delR  = 20.,
(PID.TID 0000.0001) ># interViscAr_pCell = .TRUE.,
(PID.TID 0000.0001) ># interDiffKr_pCell = .TRUE.,
(PID.TID 0000.0001) > pCellMix_viscAr = 60*4.e-4,
(PID.TID 0000.0001) > pCellMix_diffKr = 60*2.e-4,
(PID.TID 0000.0001) ># current default: diffKzT=5.E-5, viscAz=1.E-3,
(PID.TID 0000.0001) > /
(PID.TID 0000.0001) >
(PID.TID 0000.0001) ># Input datasets
(PID.TID 0000.0001) > &PARM05
(PID.TID 0000.0001) > bathyFile='bathybox',
(PID.TID 0000.0001) > /
(PID.TID 0000.0001) >6048
(PID.TID 0000.0001) 
(PID.TID 0000.0001)  INI_PARMS ; starts to read PARM01
(PID.TID 0000.0001)  INI_PARMS ; read PARM01 : OK
(PID.TID 0000.0001)  INI_PARMS ; starts to read PARM02
(PID.TID 0000.0001)  INI_PARMS ; read PARM02 : OK
(PID.TID 0000.0001)  INI_PARMS ; starts to read PARM03
(PID.TID 0000.0001)  INI_PARMS ; read PARM03 : OK
(PID.TID 0000.0001)  INI_PARMS ; starts to read PARM04
(PID.TID 0000.0001)  INI_PARMS ; read PARM04 : OK
(PID.TID 0000.0001)  INI_PARMS ; starts to read PARM05
(PID.TID 0000.0001)  INI_PARMS ; read PARM05 : OK
(PID.TID 0000.0001)  INI_PARMS: finished reading file "data"
(PID.TID 0000.0001)  PACKAGES_BOOT: opening data.pkg
(PID.TID 0000.0001)  OPEN_COPY_DATA_FILE: opening file data.pkg
(PID.TID 0000.0001) // =======================================================
(PID.TID 0000.0001) // Parameter file "data.pkg"
(PID.TID 0000.0001) // =======================================================
(PID.TID 0000.0001) ># Packages
(PID.TID 0000.0001) > &PACKAGES
(PID.TID 0000.0001) > useShelfIce=.TRUE.,
(PID.TID 0000.0001) ># useDiagnostics=.TRUE.,
(PID.TID 0000.0001) >  useCAL   = .TRUE.,
(PID.TID 0000.0001) >#  useOBCS        = .TRUE.,
(PID.TID 0000.0001) >
(PID.TID 0000.0001) > /
(PID.TID 0000.0001) 
(PID.TID 0000.0001)  PACKAGES_BOOT: finished reading data.pkg
(PID.TID 0000.0001)  PACKAGES_BOOT: On/Off package Summary
 --------  pkgs with a standard "usePKG" On/Off switch in "data.pkg":  --------
 pkg/obcs                 compiled but not used ( useOBCS                  = F )
 pkg/cal                  compiled   and   used ( useCAL                   = T )
 pkg/shelfice             compiled   and   used ( useShelfIce              = T )
 -------- pkgs without standard "usePKG" On/Off switch in "data.pkg":  --------
 pkg/generic_advdiff      compiled   and   used ( useGAD                   = T )
 pkg/mom_common           compiled   and   used ( momStepping              = T )
 pkg/mom_vecinv           compiled   and   used ( +vectorInvariantMomentum = T )
 pkg/mom_fluxform         compiled but not used ( & not vectorInvariantMom = F )
 pkg/cd_code              compiled but not used ( useCDscheme              = F )
 pkg/monitor              compiled   and   used ( monitorFreq > 0.         = T )
 pkg/debug                compiled but not used ( debugMode                = F )
 pkg/rw                   compiled   and   used
 pkg/mdsio                compiled   and   used
(PID.TID 0000.0001)  PACKAGES_BOOT: End of package Summary
(PID.TID 0000.0001) 
(PID.TID 0000.0001) CAL_READPARMS: opening data.cal
(PID.TID 0000.0001)  OPEN_COPY_DATA_FILE: opening file data.cal
(PID.TID 0000.0001) // =======================================================
(PID.TID 0000.0001) // Parameter file "data.cal"
(PID.TID 0000.0001) // =======================================================
(PID.TID 0000.0001) >#
(PID.TID 0000.0001) ># *******************
(PID.TID 0000.0001) ># Calendar Parameters
(PID.TID 0000.0001) ># *******************
(PID.TID 0000.0001) > &CAL_NML
(PID.TID 0000.0001) > TheCalendar='gregorian',
(PID.TID 0000.0001) > startDate_1=19920101,
(PID.TID 0000.0001) > startDate_2=000000,
(PID.TID 0000.0001) > calendarDumps = .TRUE.,
(PID.TID 0000.0001) > /
(PID.TID 0000.0001) 
(PID.TID 0000.0001) CAL_READPARMS: finished reading data.cal
(PID.TID 0000.0001)  SHELFICE_READPARMS: opening data.shelfice
(PID.TID 0000.0001)  OPEN_COPY_DATA_FILE: opening file data.shelfice
(PID.TID 0000.0001) // =======================================================
(PID.TID 0000.0001) // Parameter file "data.shelfice"
(PID.TID 0000.0001) // =======================================================
(PID.TID 0000.0001) ># ===================================
(PID.TID 0000.0001) ># | Parameters for SHELFICE package |
(PID.TID 0000.0001) ># ===================================
(PID.TID 0000.0001) > &SHELFICE_PARM01
(PID.TID 0000.0001) > SHELFICEboundaryLayer = .TRUE.,
(PID.TID 0000.0001) > SHELFICEtopoFile='icetopo',
(PID.TID 0000.0001) > SHELFICEloadAnomalyFile = 'phi0surf',
(PID.TID 0000.0001) > SHELFICEconserve = .TRUE.,
(PID.TID 0000.0001) > no_slip_shelfice = .false.,
(PID.TID 0000.0001) > SHELFICEwriteState = .TRUE.,
(PID.TID 0000.0001) > SHELFICEuseGammaFrict = .TRUE.,
(PID.TID 0000.0001) > shiCdrag          = 0.0050,
(PID.TID 0000.0001) > /
(PID.TID 0000.0001) 
(PID.TID 0000.0001)  SHELFICE_READPARMS: finished reading data.shelfice
(PID.TID 0000.0001) SET_PARMS: done
(PID.TID 0000.0001) Enter INI_VERTICAL_GRID: setInterFDr=    T ; setCenterDr=    F
(PID.TID 0000.0001) %MON XC_max                       =   9.1113228859823E+03
(PID.TID 0000.0001) %MON XC_min                       =   1.1533320108838E+02
(PID.TID 0000.0001) %MON XC_mean                      =   4.6133280435354E+03
(PID.TID 0000.0001) %MON XC_sd                        =   2.6626737120168E+03
(PID.TID 0000.0001) %MON XG_max                       =   8.9959896848940E+03
(PID.TID 0000.0001) %MON XG_min                       =   0.0000000000000E+00
(PID.TID 0000.0001) %MON XG_mean                      =   4.4979948424470E+03
(PID.TID 0000.0001) %MON XG_sd                        =   2.6626737120168E+03
(PID.TID 0000.0001) %MON DXC_max                      =   2.3066640217677E+02
(PID.TID 0000.0001) %MON DXC_min                      =   2.3066640217677E+02
(PID.TID 0000.0001) %MON DXC_mean                     =   2.3066640217677E+02
(PID.TID 0000.0001) %MON DXC_sd                       =   1.1368683772162E-13
(PID.TID 0000.0001) %MON DXF_max                      =   2.3066640217677E+02
(PID.TID 0000.0001) %MON DXF_min                      =   2.3066640217677E+02
(PID.TID 0000.0001) %MON DXF_mean                     =   2.3066640217677E+02
(PID.TID 0000.0001) %MON DXF_sd                       =   1.1368683772162E-13
(PID.TID 0000.0001) %MON DXG_max                      =   2.3066640217677E+02
(PID.TID 0000.0001) %MON DXG_min                      =   2.3066640217677E+02
(PID.TID 0000.0001) %MON DXG_mean                     =   2.3066640217677E+02
(PID.TID 0000.0001) %MON DXG_sd                       =   1.1368683772162E-13
(PID.TID 0000.0001) %MON DXV_max                      =   2.3066640217677E+02
(PID.TID 0000.0001) %MON DXV_min                      =   2.3066640217677E+02
(PID.TID 0000.0001) %MON DXV_mean                     =   2.3066640217677E+02
(PID.TID 0000.0001) %MON DXV_sd                       =   1.1368683772162E-13
(PID.TID 0000.0001) %MON YC_max                       =   1.5621052631579E+03
(PID.TID 0000.0001) %MON YC_min                       =  -3.7894736842105E+01
(PID.TID 0000.0001) %MON YC_mean                      =   7.6210526315789E+02
(PID.TID 0000.0001) %MON YC_sd                        =   4.8558158293351E+02
(PID.TID 0000.0001) %MON YG_max                       =   1.5200000000000E+03
(PID.TID 0000.0001) %MON YG_min                       =  -8.0000000000000E+01
(PID.TID 0000.0001) %MON YG_mean                      =   7.2000000000000E+02
(PID.TID 0000.0001) %MON YG_sd                        =   4.8558158293351E+02
(PID.TID 0000.0001) %MON DYC_max                      =   8.4210526315789E+01
(PID.TID 0000.0001) %MON DYC_min                      =   8.4210526315789E+01
(PID.TID 0000.0001) %MON DYC_mean                     =   8.4210526315790E+01
(PID.TID 0000.0001) %MON DYC_sd                       =   9.9475983006414E-14
(PID.TID 0000.0001) %MON DYF_max                      =   8.4210526315789E+01
(PID.TID 0000.0001) %MON DYF_min                      =   8.4210526315789E+01
(PID.TID 0000.0001) %MON DYF_mean                     =   8.4210526315790E+01
(PID.TID 0000.0001) %MON DYF_sd                       =   9.9475983006414E-14
(PID.TID 0000.0001) %MON DYG_max                      =   8.4210526315789E+01
(PID.TID 0000.0001) %MON DYG_min                      =   8.4210526315789E+01
(PID.TID 0000.0001) %MON DYG_mean                     =   8.4210526315790E+01
(PID.TID 0000.0001) %MON DYG_sd                       =   9.9475983006414E-14
(PID.TID 0000.0001) %MON DYU_max                      =   8.4210526315789E+01
(PID.TID 0000.0001) %MON DYU_min                      =   8.4210526315789E+01
(PID.TID 0000.0001) %MON DYU_mean                     =   8.4210526315790E+01
(PID.TID 0000.0001) %MON DYU_sd                       =   9.9475983006414E-14
(PID.TID 0000.0001) %MON RA_max                       =   1.9424539130675E+04
(PID.TID 0000.0001) %MON RA_min                       =   1.9424539130675E+04
(PID.TID 0000.0001) %MON RA_mean                      =   1.9424539130675E+04
(PID.TID 0000.0001) %MON RA_sd                        =   2.1827872842550E-11
(PID.TID 0000.0001) %MON RAW_max                      =   1.9424539130675E+04
(PID.TID 0000.0001) %MON RAW_min                      =   1.9424539130675E+04
(PID.TID 0000.0001) %MON RAW_mean                     =   1.9424539130675E+04
(PID.TID 0000.0001) %MON RAW_sd                       =   2.1827872842550E-11
(PID.TID 0000.0001) %MON RAS_max                      =   1.9424539130675E+04
(PID.TID 0000.0001) %MON RAS_min                      =   1.9424539130675E+04
(PID.TID 0000.0001) %MON RAS_mean                     =   1.9424539130675E+04
(PID.TID 0000.0001) %MON RAS_sd                       =   2.1827872842550E-11
(PID.TID 0000.0001) %MON RAZ_max                      =   1.9424539130675E+04
(PID.TID 0000.0001) %MON RAZ_min                      =   1.9424539130675E+04
(PID.TID 0000.0001) %MON RAZ_mean                     =   1.9424539130675E+04
(PID.TID 0000.0001) %MON RAZ_sd                       =   2.1827872842550E-11
(PID.TID 0000.0001) %MON AngleCS_max                  =   1.0000000000000E+00
(PID.TID 0000.0001) %MON AngleCS_min                  =   1.0000000000000E+00
(PID.TID 0000.0001) %MON AngleCS_mean                 =   1.0000000000000E+00
(PID.TID 0000.0001) %MON AngleCS_sd                   =   0.0000000000000E+00
(PID.TID 0000.0001) %MON AngleSN_max                  =   0.0000000000000E+00
(PID.TID 0000.0001) %MON AngleSN_min                  =   0.0000000000000E+00
(PID.TID 0000.0001) %MON AngleSN_mean                 =   0.0000000000000E+00
(PID.TID 0000.0001) %MON AngleSN_sd                   =   0.0000000000000E+00
(PID.TID 0000.0001) 
(PID.TID 0000.0001) // =======================================================
(PID.TID 0000.0001) // Calendar configuration >>> START <<<
(PID.TID 0000.0001) // =======================================================
(PID.TID 0000.0001) 
(PID.TID 0000.0001) modelstart = /* Start time of the model integration [s] */
(PID.TID 0000.0001)                 0.000000000000000E+00
(PID.TID 0000.0001)     ;
(PID.TID 0000.0001) modelend  = /* End time of the model integration [s] */
(PID.TID 0000.0001)                 3.155760000000000E+07
(PID.TID 0000.0001)     ;
(PID.TID 0000.0001) modelStep = /* Time interval for a model forward step [s] */
(PID.TID 0000.0001)                 8.000000000000000E+01
(PID.TID 0000.0001)     ;
(PID.TID 0000.0001) usingGregorianCalendar= /* Calendar Type: Gregorian Calendar */
(PID.TID 0000.0001)                   T
(PID.TID 0000.0001)     ;
(PID.TID 0000.0001) usingJulianCalendar = /* Calendar Type: Julian Calendar */
(PID.TID 0000.0001)                   F
(PID.TID 0000.0001)     ;
(PID.TID 0000.0001) usingNoLeapYearCal  = /* Calendar Type: without Leap Year */
(PID.TID 0000.0001)                   F
(PID.TID 0000.0001)     ;
(PID.TID 0000.0001) usingModelCalendar  = /* Calendar Type: Model Calendar */
(PID.TID 0000.0001)                   F
(PID.TID 0000.0001)     ;
(PID.TID 0000.0001) modelStartDate YYYYMMDD = /* Model start date YYYY-MM-DD */
(PID.TID 0000.0001)                19920101
(PID.TID 0000.0001)     ;
(PID.TID 0000.0001)   modelStartDate HHMMSS = /* Model start date HH-MM-SS  */
(PID.TID 0000.0001)                       0
(PID.TID 0000.0001)     ;
(PID.TID 0000.0001) modelEndDate   YYYYMMDD = /* Model end date YYYY-MM-DD */
(PID.TID 0000.0001)                19921231
(PID.TID 0000.0001)     ;
(PID.TID 0000.0001)   modelEndDate   HHMMSS = /* Model end date HH-MM-SS  */
(PID.TID 0000.0001)                   60000
(PID.TID 0000.0001)     ;
(PID.TID 0000.0001) intyears = /* Number of calendar years affected by the integration */
(PID.TID 0000.0001)                       1
(PID.TID 0000.0001)     ;
(PID.TID 0000.0001) intmonths= /* Number of calendar months affected by the integration */
(PID.TID 0000.0001)                      12
(PID.TID 0000.0001)     ;
(PID.TID 0000.0001) intdays = /* Number of calendar days affected by the integration */
(PID.TID 0000.0001)                     366
(PID.TID 0000.0001)     ;
(PID.TID 0000.0001) modelIter0 = /* Base timestep number  */
(PID.TID 0000.0001)                       0
(PID.TID 0000.0001)     ;
(PID.TID 0000.0001) modelIterEnd = /* Final timestep number  */
(PID.TID 0000.0001)                  394470
(PID.TID 0000.0001)     ;
(PID.TID 0000.0001) modelIntSteps= /* Number of model timesteps  */
(PID.TID 0000.0001)                  394470
(PID.TID 0000.0001)     ;
(PID.TID 0000.0001) 
(PID.TID 0000.0001) // =======================================================
(PID.TID 0000.0001) // Calendar configuration  >>> END <<<
(PID.TID 0000.0001) // =======================================================
(PID.TID 0000.0001) 
(PID.TID 0000.0001) GAD_INIT_FIXED: GAD_OlMinSize=  4  0  1
(PID.TID 0000.0001) 
(PID.TID 0000.0001) // ===================================
(PID.TID 0000.0001) // GAD parameters :
(PID.TID 0000.0001) // ===================================
(PID.TID 0000.0001) tempAdvScheme =   /* Temp. Horiz.Advection scheme selector */
(PID.TID 0000.0001)                       7
(PID.TID 0000.0001)     ;
(PID.TID 0000.0001) tempVertAdvScheme =   /* Temp. Vert. Advection scheme selector */
(PID.TID 0000.0001)                       7
(PID.TID 0000.0001)     ;
(PID.TID 0000.0001) tempMultiDimAdvec =   /* use Muti-Dim Advec method for Temp */
(PID.TID 0000.0001)                   T
(PID.TID 0000.0001)     ;
(PID.TID 0000.0001) tempSOM_Advection = /* use 2nd Order Moment Advection for Temp */
(PID.TID 0000.0001)                   F
(PID.TID 0000.0001)     ;
(PID.TID 0000.0001) AdamsBashforthGt = /* apply Adams-Bashforth extrapolation on Gt */
(PID.TID 0000.0001)                   F
(PID.TID 0000.0001)     ;
(PID.TID 0000.0001) AdamsBashforth_T = /* apply Adams-Bashforth extrapolation on Temp */
(PID.TID 0000.0001)                   F
(PID.TID 0000.0001)     ;
(PID.TID 0000.0001) saltAdvScheme =   /* Salt. Horiz.advection scheme selector */
(PID.TID 0000.0001)                       7
(PID.TID 0000.0001)     ;
(PID.TID 0000.0001) saltVertAdvScheme =   /* Salt. Vert. Advection scheme selector */
(PID.TID 0000.0001)                       7
(PID.TID 0000.0001)     ;
(PID.TID 0000.0001) saltMultiDimAdvec =   /* use Muti-Dim Advec method for Salt */
(PID.TID 0000.0001)                   T
(PID.TID 0000.0001)     ;
(PID.TID 0000.0001) saltSOM_Advection = /* use 2nd Order Moment Advection for Salt */
(PID.TID 0000.0001)                   F
(PID.TID 0000.0001)     ;
(PID.TID 0000.0001) AdamsBashforthGs = /* apply Adams-Bashforth extrapolation on Gs */
(PID.TID 0000.0001)                   F
(PID.TID 0000.0001)     ;
(PID.TID 0000.0001) AdamsBashforth_S = /* apply Adams-Bashforth extrapolation on Salt */
(PID.TID 0000.0001)                   F
(PID.TID 0000.0001)     ;
(PID.TID 0000.0001) // ===================================
(PID.TID 0000.0001) Empty tile bi,bj=     1     1
(PID.TID 0000.0001) 
(PID.TID 0000.0001) %MON fCori_max                    =   1.0001562105263E-04
(PID.TID 0000.0001) %MON fCori_min                    =   9.9999621052632E-05
(PID.TID 0000.0001) %MON fCori_mean                   =   1.0000762105263E-04
(PID.TID 0000.0001) %MON fCori_sd                     =   4.8558158293358E-09
(PID.TID 0000.0001) %MON fCoriG_max                   =   1.0001520000000E-04
(PID.TID 0000.0001) %MON fCoriG_min                   =   9.9999200000000E-05
(PID.TID 0000.0001) %MON fCoriG_mean                  =   1.0000720000000E-04
(PID.TID 0000.0001) %MON fCoriG_sd                    =   4.8558158293353E-09
(PID.TID 0000.0001) %MON fCoriCos_max                 =   0.0000000000000E+00
(PID.TID 0000.0001) %MON fCoriCos_min                 =   0.0000000000000E+00
(PID.TID 0000.0001) %MON fCoriCos_mean                =   0.0000000000000E+00
(PID.TID 0000.0001) %MON fCoriCos_sd                  =   0.0000000000000E+00
(PID.TID 0000.0001) INI_CG2D: CG2D normalisation factor =  1.1853082943439016E-03
(PID.TID 0000.0001) 
(PID.TID 0000.0001) // =======================================================
(PID.TID 0000.0001) // Model configuration
(PID.TID 0000.0001) // =======================================================
(PID.TID 0000.0001) //
(PID.TID 0000.0001) // "Physical" paramters ( PARM01 in namelist )
(PID.TID 0000.0001) //
(PID.TID 0000.0001) buoyancyRelation = /* Type of relation to get Buoyancy */
(PID.TID 0000.0001)               'OCEANIC'
(PID.TID 0000.0001)     ;
(PID.TID 0000.0001) fluidIsAir   =  /* fluid major constituent is Air */
(PID.TID 0000.0001)                   F
(PID.TID 0000.0001)     ;
(PID.TID 0000.0001) fluidIsWater =  /* fluid major constituent is Water */
(PID.TID 0000.0001)                   T
(PID.TID 0000.0001)     ;
(PID.TID 0000.0001) usingPCoords =  /* use p (or p*) vertical coordinate */
(PID.TID 0000.0001)                   F
(PID.TID 0000.0001)     ;
(PID.TID 0000.0001) usingZCoords =  /* use z (or z*) vertical coordinate */
(PID.TID 0000.0001)                   T
(PID.TID 0000.0001)     ;
(PID.TID 0000.0001) tRef =   /* Reference temperature profile ( oC or K ) */
(PID.TID 0000.0001)    60 @ -2.100000000000000E+00              /* K =  1: 60 */
(PID.TID 0000.0001)     ;
(PID.TID 0000.0001) sRef =   /* Reference salinity profile ( psu ) */
(PID.TID 0000.0001)    60 @  3.450000000000000E+01              /* K =  1: 60 */
(PID.TID 0000.0001)     ;
(PID.TID 0000.0001) useStrainTensionVisc= /* Use StrainTension Form of Viscous Operator */
(PID.TID 0000.0001)                   F
(PID.TID 0000.0001)     ;
(PID.TID 0000.0001) useVariableVisc = /* Use variable horizontal viscosity */
(PID.TID 0000.0001)                   T
(PID.TID 0000.0001)     ;
(PID.TID 0000.0001) useHarmonicVisc = /* Use harmonic horizontal viscosity */
(PID.TID 0000.0001)                   F
(PID.TID 0000.0001)     ;
(PID.TID 0000.0001) useBiharmonicVisc= /* Use biharmonic horiz.  viscosity */
(PID.TID 0000.0001)                   T
(PID.TID 0000.0001)     ;
(PID.TID 0000.0001) useSmag3D = /* Use isotropic 3-D Smagorinsky viscosity */
(PID.TID 0000.0001)                   F
(PID.TID 0000.0001)     ;
(PID.TID 0000.0001) viscAh  =   /* Lateral harmonic viscosity ( m^2/s ) */
(PID.TID 0000.0001)                 0.000000000000000E+00
(PID.TID 0000.0001)     ;
(PID.TID 0000.0001) viscAhMax = /* Maximum lateral harmonic viscosity ( m^2/s ) */
(PID.TID 0000.0001)                 1.000000000000000E+21
(PID.TID 0000.0001)     ;
(PID.TID 0000.0001) viscAhGrid = /* Grid dependent lateral harmonic viscosity ( non-dim. ) */
(PID.TID 0000.0001)                 0.000000000000000E+00
(PID.TID 0000.0001)     ;
(PID.TID 0000.0001) useFullLeith = /* Use Full Form of Leith Viscosity on/off flag*/
(PID.TID 0000.0001)                   F
(PID.TID 0000.0001)     ;
(PID.TID 0000.0001) useAreaViscLength = /* Use area for visc length instead of geom. mean*/
(PID.TID 0000.0001)                   T
(PID.TID 0000.0001)     ;
(PID.TID 0000.0001) viscC2leith = /* Leith harmonic visc. factor (on grad(vort),non-dim.) */
(PID.TID 0000.0001)                 0.000000000000000E+00
(PID.TID 0000.0001)     ;
(PID.TID 0000.0001) viscC2leithD = /* Leith harmonic viscosity factor (on grad(div),non-dim.)*/
(PID.TID 0000.0001)                 0.000000000000000E+00
(PID.TID 0000.0001)     ;
(PID.TID 0000.0001) viscC2smag = /* Smagorinsky harmonic viscosity factor (non-dim.) */
(PID.TID 0000.0001)                 0.000000000000000E+00
(PID.TID 0000.0001)     ;
(PID.TID 0000.0001) viscA4  =   /* Lateral biharmonic viscosity ( m^4/s ) */
(PID.TID 0000.0001)                 0.000000000000000E+00
(PID.TID 0000.0001)     ;
(PID.TID 0000.0001) viscA4Max = /* Maximum biharmonic viscosity ( m^2/s ) */
(PID.TID 0000.0001)                 1.000000000000000E+21
(PID.TID 0000.0001)     ;
(PID.TID 0000.0001) viscA4Grid = /* Grid dependent biharmonic viscosity ( non-dim. ) */
(PID.TID 0000.0001)                 0.000000000000000E+00
(PID.TID 0000.0001)     ;
(PID.TID 0000.0001) viscC4leith = /* Leith biharm viscosity factor (on grad(vort), non-dim.)*/
(PID.TID 0000.0001)                 2.000000000000000E+00
(PID.TID 0000.0001)     ;
(PID.TID 0000.0001) viscC4leithD = /* Leith biharm viscosity factor (on grad(div), non-dim.) */
(PID.TID 0000.0001)                 2.000000000000000E+00
(PID.TID 0000.0001)     ;
(PID.TID 0000.0001) viscC4Smag = /* Smagorinsky biharm viscosity factor (non-dim) */
(PID.TID 0000.0001)                 0.000000000000000E+00
(PID.TID 0000.0001)     ;
(PID.TID 0000.0001) no_slip_sides =  /* Viscous BCs: No-slip sides */
(PID.TID 0000.0001)                   F
(PID.TID 0000.0001)     ;
(PID.TID 0000.0001) sideDragFactor = /* side-drag scaling factor (non-dim) */
(PID.TID 0000.0001)                 0.000000000000000E+00
(PID.TID 0000.0001)     ;
(PID.TID 0000.0001) viscArNr = /* vertical profile of vertical viscosity ( m^2/s )*/
(PID.TID 0000.0001)    60 @  1.000000000000000E-04              /* K =  1: 60 */
(PID.TID 0000.0001)     ;
(PID.TID 0000.0001) no_slip_bottom =  /* Viscous BCs: No-slip bottom */
(PID.TID 0000.0001)                   T
(PID.TID 0000.0001)     ;
(PID.TID 0000.0001) bottomVisc_pCell = /* Partial-cell in bottom Visc. BC */
(PID.TID 0000.0001)                   F
(PID.TID 0000.0001)     ;
(PID.TID 0000.0001) bottomDragLinear = /* linear bottom-drag coefficient ( m/s ) */
(PID.TID 0000.0001)                 0.000000000000000E+00
(PID.TID 0000.0001)     ;
(PID.TID 0000.0001) bottomDragQuadratic = /* quadratic bottom-drag coefficient (-) */
(PID.TID 0000.0001)                 2.100000000000000E-03
(PID.TID 0000.0001)     ;
(PID.TID 0000.0001) selectBotDragQuadr = /* select quadratic bottom drag options */
(PID.TID 0000.0001)                       0
(PID.TID 0000.0001)     ;
(PID.TID 0000.0001) diffKhT =   /* Laplacian diffusion of heat laterally ( m^2/s ) */
(PID.TID 0000.0001)                 0.000000000000000E+00
(PID.TID 0000.0001)     ;
(PID.TID 0000.0001) diffK4T =   /* Biharmonic diffusion of heat laterally ( m^4/s ) */
(PID.TID 0000.0001)                 0.000000000000000E+00
(PID.TID 0000.0001)     ;
(PID.TID 0000.0001) diffKhS =   /* Laplacian diffusion of salt laterally ( m^2/s ) */
(PID.TID 0000.0001)                 0.000000000000000E+00
(PID.TID 0000.0001)     ;
(PID.TID 0000.0001) diffK4S =   /* Biharmonic diffusion of salt laterally ( m^4/s ) */
(PID.TID 0000.0001)                 0.000000000000000E+00
(PID.TID 0000.0001)     ;
(PID.TID 0000.0001) diffKrNrT = /* vertical profile of vertical diffusion of Temp ( m^2/s )*/
(PID.TID 0000.0001)    60 @  5.000000000000000E-06              /* K =  1: 60 */
(PID.TID 0000.0001)     ;
(PID.TID 0000.0001) diffKrNrS = /* vertical profile of vertical diffusion of Salt ( m^2/s )*/
(PID.TID 0000.0001)    60 @  5.000000000000000E-06              /* K =  1: 60 */
(PID.TID 0000.0001)     ;
(PID.TID 0000.0001) diffKrBL79surf = /* Surface diffusion for Bryan and Lewis 79 ( m^2/s ) */
(PID.TID 0000.0001)                 0.000000000000000E+00
(PID.TID 0000.0001)     ;
(PID.TID 0000.0001) diffKrBL79deep = /* Deep diffusion for Bryan and Lewis 1979 ( m^2/s ) */
(PID.TID 0000.0001)                 0.000000000000000E+00
(PID.TID 0000.0001)     ;
(PID.TID 0000.0001) diffKrBL79scl = /* Depth scale for Bryan and Lewis 1979 ( m ) */
(PID.TID 0000.0001)                 2.000000000000000E+02
(PID.TID 0000.0001)     ;
(PID.TID 0000.0001) diffKrBL79Ho = /* Turning depth for Bryan and Lewis 1979 ( m ) */
(PID.TID 0000.0001)                -2.000000000000000E+03
(PID.TID 0000.0001)     ;
(PID.TID 0000.0001) ivdc_kappa = /* Implicit Vertical Diffusivity for Convection ( m^2/s) */
(PID.TID 0000.0001)                 0.000000000000000E+00
(PID.TID 0000.0001)     ;
(PID.TID 0000.0001) hMixCriteria=  /* Criteria for mixed-layer diagnostic */
(PID.TID 0000.0001)                -8.000000000000000E-01
(PID.TID 0000.0001)     ;
(PID.TID 0000.0001) dRhoSmall =  /* Parameter for mixed-layer diagnostic */
(PID.TID 0000.0001)                 1.000000000000000E-06
(PID.TID 0000.0001)     ;
(PID.TID 0000.0001) hMixSmooth=  /* Smoothing parameter for mixed-layer diagnostic */
(PID.TID 0000.0001)                 0.000000000000000E+00
(PID.TID 0000.0001)     ;
(PID.TID 0000.0001) eosType =  /* Type of Equation of State */
(PID.TID 0000.0001)               'JMD95Z'
(PID.TID 0000.0001)     ;
(PID.TID 0000.0001) selectP_inEOS_Zc = /* select pressure to use in EOS (0,1,2,3) */
(PID.TID 0000.0001)                       0
(PID.TID 0000.0001)     0= -g*rhoConst*z ; 1= pRef (from tRef,sRef); 2= Hyd P ; 3= Hyd+NH P
(PID.TID 0000.0001)     ;
(PID.TID 0000.0001) HeatCapacity_Cp =  /* Specific heat capacity ( J/kg/K ) */
(PID.TID 0000.0001)                 3.994000000000000E+03
(PID.TID 0000.0001)     ;
(PID.TID 0000.0001) celsius2K = /* 0 degree Celsius converted to Kelvin ( K ) */
(PID.TID 0000.0001)                 2.731500000000000E+02
(PID.TID 0000.0001)     ;
(PID.TID 0000.0001) rhoConst  = /* Reference density (Boussinesq)  ( kg/m^3 ) */
(PID.TID 0000.0001)                 1.028900000000000E+03
(PID.TID 0000.0001)     ;
(PID.TID 0000.0001) rhoFacC = /* normalized Reference density @ cell-Center (-) */
(PID.TID 0000.0001)    60 @  1.000000000000000E+00              /* K =  1: 60 */
(PID.TID 0000.0001)     ;
(PID.TID 0000.0001) rhoFacF = /* normalized Reference density @ W-Interface (-) */
(PID.TID 0000.0001)    61 @  1.000000000000000E+00              /* K =  1: 61 */
(PID.TID 0000.0001)     ;
(PID.TID 0000.0001) rhoConstFresh = /* Fresh-water reference density ( kg/m^3 ) */
(PID.TID 0000.0001)                 9.998000000000000E+02
(PID.TID 0000.0001)     ;
(PID.TID 0000.0001) gravity =   /* Gravitational acceleration ( m/s^2 ) */
(PID.TID 0000.0001)                 9.810000000000000E+00
(PID.TID 0000.0001)     ;
(PID.TID 0000.0001) gBaro =   /* Barotropic gravity ( m/s^2 ) */
(PID.TID 0000.0001)                 9.810000000000000E+00
(PID.TID 0000.0001)     ;
(PID.TID 0000.0001) gravFacC = /* gravity factor (vs surf.) @ cell-Center (-) */
(PID.TID 0000.0001)    60 @  1.000000000000000E+00              /* K =  1: 60 */
(PID.TID 0000.0001)     ;
(PID.TID 0000.0001) gravFacF = /* gravity factor (vs surf.) @ W-Interface (-) */
(PID.TID 0000.0001)    61 @  1.000000000000000E+00              /* K =  1: 61 */
(PID.TID 0000.0001)     ;
(PID.TID 0000.0001) rotationPeriod =   /* Rotation Period ( s ) */
(PID.TID 0000.0001)                 8.616400000000000E+04
(PID.TID 0000.0001)     ;
(PID.TID 0000.0001) omega =   /* Angular velocity ( rad/s ) */
(PID.TID 0000.0001)                 7.292123516990375E-05
(PID.TID 0000.0001)     ;
(PID.TID 0000.0001) f0 =   /* Reference coriolis parameter ( 1/s ) */
(PID.TID 0000.0001)                 1.000000000000000E-04
(PID.TID 0000.0001)     ;
(PID.TID 0000.0001) beta =   /* Beta ( 1/(m.s) ) */
(PID.TID 0000.0001)                 9.999999999999999E-12
(PID.TID 0000.0001)     ;
(PID.TID 0000.0001) fPrime =   /* Second coriolis parameter ( 1/s ) */
(PID.TID 0000.0001)                 0.000000000000000E+00
(PID.TID 0000.0001)     ;
(PID.TID 0000.0001) rigidLid =   /* Rigid lid on/off flag */
(PID.TID 0000.0001)                   F
(PID.TID 0000.0001)     ;
(PID.TID 0000.0001) implicitFreeSurface =   /* Implicit free surface on/off flag */
(PID.TID 0000.0001)                   T
(PID.TID 0000.0001)     ;
(PID.TID 0000.0001) freeSurfFac =   /* Implicit free surface factor */
(PID.TID 0000.0001)                 1.000000000000000E+00
(PID.TID 0000.0001)     ;
(PID.TID 0000.0001) implicSurfPress =  /* Surface Pressure implicit factor (0-1)*/
(PID.TID 0000.0001)                 1.000000000000000E+00
(PID.TID 0000.0001)     ;
(PID.TID 0000.0001) implicDiv2DFlow =  /* Barot. Flow Div. implicit factor (0-1)*/
(PID.TID 0000.0001)                 1.000000000000000E+00
(PID.TID 0000.0001)     ;
(PID.TID 0000.0001) uniformLin_PhiSurf = /* use uniform Bo_surf on/off flag*/
(PID.TID 0000.0001)                   T
(PID.TID 0000.0001)     ;
(PID.TID 0000.0001) uniformFreeSurfLev = /* free-surface level-index is uniform */
(PID.TID 0000.0001)                   F
(PID.TID 0000.0001)     ;
(PID.TID 0000.0001) hFacMin =   /* minimum partial cell factor (hFac) */
(PID.TID 0000.0001)                 3.000000000000000E-01
(PID.TID 0000.0001)     ;
(PID.TID 0000.0001) hFacMinDr = /* minimum partial cell thickness ( m) */
(PID.TID 0000.0001)                 0.000000000000000E+00
(PID.TID 0000.0001)     ;
(PID.TID 0000.0001) exactConserv =  /* Exact Volume Conservation on/off flag*/
(PID.TID 0000.0001)                   T
(PID.TID 0000.0001)     ;
(PID.TID 0000.0001) linFSConserveTr = /* Tracer correction for Lin Free Surface on/off flag*/
(PID.TID 0000.0001)                   F
(PID.TID 0000.0001)     ;
(PID.TID 0000.0001) nonlinFreeSurf = /* Non-linear Free Surf. options (-1,0,1,2,3)*/
(PID.TID 0000.0001)                       0
(PID.TID 0000.0001)      -1,0= Off ; 1,2,3= On, 2=+rescale gU,gV, 3=+update cg2d solv.
(PID.TID 0000.0001)     ;
(PID.TID 0000.0001) hFacInf =   /* lower threshold for hFac (nonlinFreeSurf only)*/
(PID.TID 0000.0001)                 1.000000000000000E-01
(PID.TID 0000.0001)     ;
(PID.TID 0000.0001) hFacSup =   /* upper threshold for hFac (nonlinFreeSurf only)*/
(PID.TID 0000.0001)                 5.000000000000000E+00
(PID.TID 0000.0001)     ;
(PID.TID 0000.0001) select_rStar = /* r* Vertical coord. options (=0 r coord.; >0 uses r*)*/
(PID.TID 0000.0001)                       0
(PID.TID 0000.0001)     ;
(PID.TID 0000.0001) useRealFreshWaterFlux = /* Real Fresh Water Flux on/off flag*/
(PID.TID 0000.0001)                   F
(PID.TID 0000.0001)     ;
(PID.TID 0000.0001) temp_EvPrRn = /* Temp. of Evap/Prec/R (UNSET=use local T)(oC)*/
(PID.TID 0000.0001)                 1.234567000000000E+05
(PID.TID 0000.0001)     ;
(PID.TID 0000.0001) salt_EvPrRn = /* Salin. of Evap/Prec/R (UNSET=use local S)(psu)*/
(PID.TID 0000.0001)                 0.000000000000000E+00
(PID.TID 0000.0001)     ;
(PID.TID 0000.0001) selectAddFluid = /* option for mass source/sink of fluid (=0: off) */
(PID.TID 0000.0001)                       0
(PID.TID 0000.0001)     ;
(PID.TID 0000.0001) temp_addMass = /* Temp. of addMass array (UNSET=use local T)(oC)*/
(PID.TID 0000.0001)                 1.234567000000000E+05
(PID.TID 0000.0001)     ;
(PID.TID 0000.0001) salt_addMass = /* Salin. of addMass array (UNSET=use local S)(psu)*/
(PID.TID 0000.0001)                 0.000000000000000E+00
(PID.TID 0000.0001)     ;
(PID.TID 0000.0001) convertFW2Salt = /* convert F.W. Flux to Salt Flux (-1=use local S)(psu)*/
(PID.TID 0000.0001)                 3.340000000000000E+01
(PID.TID 0000.0001)     ;
(PID.TID 0000.0001) use3Dsolver = /* use 3-D pressure solver on/off flag */
(PID.TID 0000.0001)                   F
(PID.TID 0000.0001)     ;
(PID.TID 0000.0001) nonHydrostatic =  /* Non-Hydrostatic on/off flag */
(PID.TID 0000.0001)                   F
(PID.TID 0000.0001)     ;
(PID.TID 0000.0001) nh_Am2 = /* Non-Hydrostatic terms scaling factor */
(PID.TID 0000.0001)                 1.000000000000000E+00
(PID.TID 0000.0001)     ;
(PID.TID 0000.0001) implicitNHPress = /* Non-Hyd Pressure implicit factor (0-1)*/
(PID.TID 0000.0001)                 1.000000000000000E+00
(PID.TID 0000.0001)     ;
(PID.TID 0000.0001) selectNHfreeSurf = /* Non-Hyd (free-)Surface option */
(PID.TID 0000.0001)                       0
(PID.TID 0000.0001)     ;
(PID.TID 0000.0001) quasiHydrostatic = /* Quasi-Hydrostatic on/off flag */
(PID.TID 0000.0001)                   F
(PID.TID 0000.0001)     ;
(PID.TID 0000.0001) calc_wVelocity = /* vertical velocity calculation on/off flag */
(PID.TID 0000.0001)                   T
(PID.TID 0000.0001)     ;
(PID.TID 0000.0001) momStepping =  /* Momentum equation on/off flag */
(PID.TID 0000.0001)                   T
(PID.TID 0000.0001)     ;
(PID.TID 0000.0001) vectorInvariantMomentum= /* Vector-Invariant Momentum on/off */
(PID.TID 0000.0001)                   T
(PID.TID 0000.0001)     ;
(PID.TID 0000.0001) momAdvection =  /* Momentum advection on/off flag */
(PID.TID 0000.0001)                   T
(PID.TID 0000.0001)     ;
(PID.TID 0000.0001) momViscosity =  /* Momentum viscosity on/off flag */
(PID.TID 0000.0001)                   T
(PID.TID 0000.0001)     ;
(PID.TID 0000.0001) momImplVertAdv= /* Momentum implicit vert. advection on/off*/
(PID.TID 0000.0001)                   F
(PID.TID 0000.0001)     ;
(PID.TID 0000.0001) implicitViscosity = /* Implicit viscosity on/off flag */
(PID.TID 0000.0001)                   T
(PID.TID 0000.0001)     ;
(PID.TID 0000.0001) selectImplicitDrag= /* Implicit bot Drag options (0,1,2)*/
(PID.TID 0000.0001)                       0
(PID.TID 0000.0001)     0= Expl. ; 1= Impl. on provis. Vel ; 2= Fully Impl (with surf.P)
(PID.TID 0000.0001)     ;
(PID.TID 0000.0001) metricTerms =  /* metric-Terms on/off flag */
(PID.TID 0000.0001)                   F
(PID.TID 0000.0001)     ;
(PID.TID 0000.0001) useNHMTerms = /* Non-Hydrostatic Metric-Terms on/off */
(PID.TID 0000.0001)                   F
(PID.TID 0000.0001)     ;
(PID.TID 0000.0001) selectCoriMap = /* Coriolis Map options (0,1,2,3)*/
(PID.TID 0000.0001)                       1
(PID.TID 0000.0001)     0= f-Plane ; 1= Beta-Plane ; 2= Spherical ; 3= read from file
(PID.TID 0000.0001)     ;
(PID.TID 0000.0001) use3dCoriolis = /* 3-D Coriolis on/off flag */
(PID.TID 0000.0001)                   F
(PID.TID 0000.0001)     ;
(PID.TID 0000.0001) useCoriolis =  /* Coriolis on/off flag */
(PID.TID 0000.0001)                   T
(PID.TID 0000.0001)     ;
(PID.TID 0000.0001) useCDscheme =  /* CD scheme on/off flag */
(PID.TID 0000.0001)                   F
(PID.TID 0000.0001)     ;
(PID.TID 0000.0001) useEnergyConservingCoriolis= /* Flx-Form Coriolis scheme flag */
(PID.TID 0000.0001)                   F
(PID.TID 0000.0001)     ;
(PID.TID 0000.0001) useJamartWetPoints= /* Coriolis WetPoints method flag */
(PID.TID 0000.0001)                   F
(PID.TID 0000.0001)     ;
(PID.TID 0000.0001) useJamartMomAdv= /* V.I Non-linear terms Jamart flag */
(PID.TID 0000.0001)                   F
(PID.TID 0000.0001)     ;
(PID.TID 0000.0001) useAbsVorticity= /* V.I Works with f+zeta in Coriolis */
(PID.TID 0000.0001)                   F
(PID.TID 0000.0001)     ;
(PID.TID 0000.0001) selectVortScheme= /* V.I Scheme selector for Vorticity-Term */
(PID.TID 0000.0001)                       0
(PID.TID 0000.0001)    = 0 : enstrophy (Shallow-Water Eq.) conserving scheme by Sadourny, JAS 75
(PID.TID 0000.0001)    = 1 : same as 0 with modified hFac
(PID.TID 0000.0001)    = 2 : energy conserving scheme (used by Sadourny in JAS 75 paper)
(PID.TID 0000.0001)    = 3 : energy (general) and enstrophy (2D, nonDiv.) conserving scheme
(PID.TID 0000.0001)          from Sadourny (Burridge & Haseler, ECMWF Rep.4, 1977)
(PID.TID 0000.0001)     ;
(PID.TID 0000.0001) upwindVorticity= /* V.I Upwind bias vorticity flag */
(PID.TID 0000.0001)                   F
(PID.TID 0000.0001)     ;
(PID.TID 0000.0001) highOrderVorticity= /* V.I High order vort. advect. flag */
(PID.TID 0000.0001)                   T
(PID.TID 0000.0001)     ;
(PID.TID 0000.0001) upwindShear= /* V.I Upwind vertical Shear advection flag */
(PID.TID 0000.0001)                   F
(PID.TID 0000.0001)     ;
(PID.TID 0000.0001) selectKEscheme= /* V.I Kinetic Energy scheme selector */
(PID.TID 0000.0001)                       0
(PID.TID 0000.0001)     ;
(PID.TID 0000.0001) momForcing =  /* Momentum forcing on/off flag */
(PID.TID 0000.0001)                   T
(PID.TID 0000.0001)     ;
(PID.TID 0000.0001) momPressureForcing =  /* Momentum pressure term on/off flag */
(PID.TID 0000.0001)                   T
(PID.TID 0000.0001)     ;
(PID.TID 0000.0001) implicitIntGravWave= /* Implicit Internal Gravity Wave flag */
(PID.TID 0000.0001)                   F
(PID.TID 0000.0001)     ;
(PID.TID 0000.0001) staggerTimeStep =    /* Stagger time stepping on/off flag */
(PID.TID 0000.0001)                   T
(PID.TID 0000.0001)     ;
(PID.TID 0000.0001) doResetHFactors = /* reset thickness factors @ each time-step */
(PID.TID 0000.0001)                   F
(PID.TID 0000.0001)     ;
(PID.TID 0000.0001) multiDimAdvection =  /* enable/disable Multi-Dim Advection */
(PID.TID 0000.0001)                   T
(PID.TID 0000.0001)     ;
(PID.TID 0000.0001) useMultiDimAdvec =   /* Multi-Dim Advection is/is-not used */
(PID.TID 0000.0001)                   T
(PID.TID 0000.0001)     ;
(PID.TID 0000.0001) implicitDiffusion = /* Implicit Diffusion on/off flag */
(PID.TID 0000.0001)                   T
(PID.TID 0000.0001)     ;
(PID.TID 0000.0001) tempStepping =  /* Temperature equation on/off flag */
(PID.TID 0000.0001)                   T
(PID.TID 0000.0001)     ;
(PID.TID 0000.0001) tempAdvection = /* Temperature advection on/off flag */
(PID.TID 0000.0001)                   T
(PID.TID 0000.0001)     ;
(PID.TID 0000.0001) tempImplVertAdv = /* Temp. implicit vert. advection on/off */
(PID.TID 0000.0001)                   F
(PID.TID 0000.0001)     ;
(PID.TID 0000.0001) tempForcing  =  /* Temperature forcing on/off flag */
(PID.TID 0000.0001)                   T
(PID.TID 0000.0001)     ;
(PID.TID 0000.0001) doThetaClimRelax = /* apply SST relaxation on/off flag */
(PID.TID 0000.0001)                   F
(PID.TID 0000.0001)     ;
(PID.TID 0000.0001) tempIsActiveTr = /* Temp. is a dynamically Active Tracer */
(PID.TID 0000.0001)                   T
(PID.TID 0000.0001)     ;
(PID.TID 0000.0001) saltStepping =  /* Salinity equation on/off flag */
(PID.TID 0000.0001)                   T
(PID.TID 0000.0001)     ;
(PID.TID 0000.0001) saltAdvection = /* Salinity advection on/off flag */
(PID.TID 0000.0001)                   T
(PID.TID 0000.0001)     ;
(PID.TID 0000.0001) saltImplVertAdv = /* Sali. implicit vert. advection on/off */
(PID.TID 0000.0001)                   F
(PID.TID 0000.0001)     ;
(PID.TID 0000.0001) saltForcing  =  /* Salinity forcing on/off flag */
(PID.TID 0000.0001)                   T
(PID.TID 0000.0001)     ;
(PID.TID 0000.0001) doSaltClimRelax = /* apply SSS relaxation on/off flag */
(PID.TID 0000.0001)                   F
(PID.TID 0000.0001)     ;
(PID.TID 0000.0001) saltIsActiveTr = /* Salt  is a dynamically Active Tracer */
(PID.TID 0000.0001)                   T
(PID.TID 0000.0001)     ;
(PID.TID 0000.0001)  readBinaryPrec = /* Precision used for reading binary files */
(PID.TID 0000.0001)                      64
(PID.TID 0000.0001)     ;
(PID.TID 0000.0001) writeBinaryPrec = /* Precision used for writing binary files */
(PID.TID 0000.0001)                      32
(PID.TID 0000.0001)     ;
(PID.TID 0000.0001)  rwSuffixType =   /* select format of mds file suffix */
(PID.TID 0000.0001)                       0
(PID.TID 0000.0001)    = 0 : myIter (I10.10) ;   = 1 : 100*myTime (100th sec) ;
(PID.TID 0000.0001)    = 2 : myTime (seconds);   = 3 : myTime/360 (10th of hr);
(PID.TID 0000.0001)    = 4 : myTime/3600 (hours)
(PID.TID 0000.0001)     ;
(PID.TID 0000.0001)  globalFiles = /* write "global" (=not per tile) files */
(PID.TID 0000.0001)                   F
(PID.TID 0000.0001)     ;
(PID.TID 0000.0001)  useSingleCpuIO = /* only master MPI process does I/O */
(PID.TID 0000.0001)                   T
(PID.TID 0000.0001)     ;
(PID.TID 0000.0001)  useSingleCpuInput = /* only master process reads input */
(PID.TID 0000.0001)                   T
(PID.TID 0000.0001)     ;
(PID.TID 0000.0001) /* debLev[*]  : level of debug & auxiliary message printing */
(PID.TID 0000.0001) debLevZero =  0 ; /* level of disabled aux. msg printing */
(PID.TID 0000.0001)    debLevA =  1 ; /* level of minimum  aux. msg printing */
(PID.TID 0000.0001)    debLevB =  2 ; /* level of low aux. print (report read-file opening)*/
(PID.TID 0000.0001)    debLevC =  3 ; /* level of moderate debug prt (most pkgs debug msg) */
(PID.TID 0000.0001)    debLevD =  4 ; /* level of enhanced debug prt (add DEBUG_STATS prt) */
(PID.TID 0000.0001)    debLevE =  5 ; /* level of extensive debug printing */
(PID.TID 0000.0001) debugLevel =  /* select debug printing level */
(PID.TID 0000.0001)                      -1
(PID.TID 0000.0001)     ;
(PID.TID 0000.0001)  plotLevel =  /* select PLOT_FIELD printing level */
(PID.TID 0000.0001)                       0
(PID.TID 0000.0001)     ;
(PID.TID 0000.0001) //
(PID.TID 0000.0001) // Elliptic solver(s) paramters ( PARM02 in namelist )
(PID.TID 0000.0001) //
(PID.TID 0000.0001) cg2dMaxIters =   /* Upper limit on 2d con. grad iterations  */
(PID.TID 0000.0001)                    1000
(PID.TID 0000.0001)     ;
(PID.TID 0000.0001) cg2dChkResFreq =   /* 2d con. grad convergence test frequency */
(PID.TID 0000.0001)                       1
(PID.TID 0000.0001)     ;
(PID.TID 0000.0001) cg2dUseMinResSol= /* use cg2d last-iter(=0) / min-resid.(=1) solution */
(PID.TID 0000.0001)                       0
(PID.TID 0000.0001)     ;
(PID.TID 0000.0001) cg2dTargetResidual =   /* 2d con. grad target residual  */
(PID.TID 0000.0001)                 1.000000000000000E-13
(PID.TID 0000.0001)     ;
(PID.TID 0000.0001) cg2dTargetResWunit =   /* CG2d target residual [W units] */
(PID.TID 0000.0001)                -1.000000000000000E+00
(PID.TID 0000.0001)     ;
(PID.TID 0000.0001) cg2dPreCondFreq =   /* Freq. for updating cg2d preconditioner */
(PID.TID 0000.0001)                       1
(PID.TID 0000.0001)     ;
(PID.TID 0000.0001) useSRCGSolver =  /* use single reduction CG solver(s) */
(PID.TID 0000.0001)                   F
(PID.TID 0000.0001)     ;
(PID.TID 0000.0001) printResidualFreq = /* Freq. for printing CG residual */
(PID.TID 0000.0001)                       0
(PID.TID 0000.0001)     ;
(PID.TID 0000.0001) //
(PID.TID 0000.0001) // Time stepping paramters ( PARM03 in namelist )
(PID.TID 0000.0001) //
(PID.TID 0000.0001) deltaTMom =   /* Momentum equation timestep ( s ) */
(PID.TID 0000.0001)                 8.000000000000000E+01
(PID.TID 0000.0001)     ;
(PID.TID 0000.0001) deltaTFreeSurf = /* FreeSurface equation timestep ( s ) */
(PID.TID 0000.0001)                 8.000000000000000E+01
(PID.TID 0000.0001)     ;
(PID.TID 0000.0001) dTtracerLev =  /* Tracer equation timestep ( s ) */
(PID.TID 0000.0001)    60 @  8.000000000000000E+01              /* K =  1: 60 */
(PID.TID 0000.0001)     ;
(PID.TID 0000.0001) deltaTClock  =   /* Model clock timestep ( s ) */
(PID.TID 0000.0001)                 8.000000000000000E+01
(PID.TID 0000.0001)     ;
(PID.TID 0000.0001) cAdjFreq =   /* Convective adjustment interval ( s ) */
(PID.TID 0000.0001)                 0.000000000000000E+00
(PID.TID 0000.0001)     ;
(PID.TID 0000.0001) momForcingOutAB = /* =1: take Momentum Forcing out of Adams-Bash. stepping */
(PID.TID 0000.0001)                       0
(PID.TID 0000.0001)     ;
(PID.TID 0000.0001) tracForcingOutAB = /* =1: take T,S,pTr Forcing out of Adams-Bash. stepping */
(PID.TID 0000.0001)                       0
(PID.TID 0000.0001)     ;
(PID.TID 0000.0001) momDissip_In_AB = /* put Dissipation Tendency in Adams-Bash. stepping */
(PID.TID 0000.0001)                   F
(PID.TID 0000.0001)     ;
(PID.TID 0000.0001) doAB_onGtGs = /* apply AB on Tendencies (rather than on T,S)*/
(PID.TID 0000.0001)                   T
(PID.TID 0000.0001)     ;
(PID.TID 0000.0001) abEps =   /* Adams-Bashforth-2 stabilizing weight */
(PID.TID 0000.0001)                 1.000000000000000E-01
(PID.TID 0000.0001)     ;
(PID.TID 0000.0001) applyExchUV_early = /* Apply EXCH to U,V earlier in time-step */
(PID.TID 0000.0001)                   F
(PID.TID 0000.0001)     ;
(PID.TID 0000.0001) pickupStrictlyMatch= /* stop if pickup do not strictly match */
(PID.TID 0000.0001)                   T
(PID.TID 0000.0001)     ;
(PID.TID 0000.0001) nIter0   =   /* Run starting timestep number */
(PID.TID 0000.0001)                       0
(PID.TID 0000.0001)     ;
(PID.TID 0000.0001) nTimeSteps = /* Number of timesteps */
(PID.TID 0000.0001)                  394470
(PID.TID 0000.0001)     ;
(PID.TID 0000.0001) nEndIter =   /* Run ending timestep number */
(PID.TID 0000.0001)                  394470
(PID.TID 0000.0001)     ;
(PID.TID 0000.0001) baseTime =   /* Model base time ( s ) */
(PID.TID 0000.0001)                 0.000000000000000E+00
(PID.TID 0000.0001)     ;
(PID.TID 0000.0001) startTime =  /* Run start time ( s ) */
(PID.TID 0000.0001)                 0.000000000000000E+00
(PID.TID 0000.0001)     ;
(PID.TID 0000.0001) endTime  =   /* Integration ending time ( s ) */
(PID.TID 0000.0001)                 3.155760000000000E+07
(PID.TID 0000.0001)     ;
(PID.TID 0000.0001) pChkPtFreq = /* Permanent restart/pickup file interval ( s ) */
(PID.TID 0000.0001)                 2.592000000000000E+06
(PID.TID 0000.0001)     ;
(PID.TID 0000.0001) chkPtFreq  = /* Rolling restart/pickup file interval ( s ) */
(PID.TID 0000.0001)                 2.592000000000000E+06
(PID.TID 0000.0001)     ;
(PID.TID 0000.0001) pickup_write_mdsio =   /* Model IO flag. */
(PID.TID 0000.0001)                   T
(PID.TID 0000.0001)     ;
(PID.TID 0000.0001) pickup_read_mdsio =   /* Model IO flag. */
(PID.TID 0000.0001)                   T
(PID.TID 0000.0001)     ;
(PID.TID 0000.0001) writePickupAtEnd =   /* Model IO flag. */
(PID.TID 0000.0001)                   T
(PID.TID 0000.0001)     ;
(PID.TID 0000.0001) dumpFreq =   /* Model state write out interval ( s ). */
(PID.TID 0000.0001)                 2.592000000000000E+06
(PID.TID 0000.0001)     ;
(PID.TID 0000.0001) dumpInitAndLast= /* write out Initial & Last iter. model state */
(PID.TID 0000.0001)                   T
(PID.TID 0000.0001)     ;
(PID.TID 0000.0001) snapshot_mdsio =   /* Model IO flag. */
(PID.TID 0000.0001)                   T
(PID.TID 0000.0001)     ;
(PID.TID 0000.0001) monitorFreq =   /* Monitor output interval ( s ). */
(PID.TID 0000.0001)                 2.592000000000000E+05
(PID.TID 0000.0001)     ;
(PID.TID 0000.0001) monitorSelect = /* select group of variables to monitor */
(PID.TID 0000.0001)                       2
(PID.TID 0000.0001)     ;
(PID.TID 0000.0001) monitor_stdio =   /* Model IO flag. */
(PID.TID 0000.0001)                   T
(PID.TID 0000.0001)     ;
(PID.TID 0000.0001) externForcingPeriod =   /* forcing period (s) */
(PID.TID 0000.0001)                 8.640000000000000E+04
(PID.TID 0000.0001)     ;
(PID.TID 0000.0001) externForcingCycle =   /* period of the cyle (s). */
(PID.TID 0000.0001)                 1.036800000000000E+06
(PID.TID 0000.0001)     ;
(PID.TID 0000.0001) tauThetaClimRelax =   /* relaxation time scale (s) */
(PID.TID 0000.0001)                 0.000000000000000E+00
(PID.TID 0000.0001)     ;
(PID.TID 0000.0001) tauSaltClimRelax =   /* relaxation time scale (s) */
(PID.TID 0000.0001)                 0.000000000000000E+00
(PID.TID 0000.0001)     ;
(PID.TID 0000.0001) latBandClimRelax =   /* max. Lat. where relaxation */
(PID.TID 0000.0001)                 5.052631578947372E+03
(PID.TID 0000.0001)     ;
(PID.TID 0000.0001) //
(PID.TID 0000.0001) // Gridding paramters ( PARM04 in namelist )
(PID.TID 0000.0001) //
(PID.TID 0000.0001) usingCartesianGrid = /* Cartesian coordinates flag ( True/False ) */
(PID.TID 0000.0001)                   T
(PID.TID 0000.0001)     ;
(PID.TID 0000.0001) usingCylindricalGrid = /* Cylindrical coordinates flag ( True/False ) */
(PID.TID 0000.0001)                   F
(PID.TID 0000.0001)     ;
(PID.TID 0000.0001) usingSphericalPolarGrid = /* Spherical coordinates flag ( True/False ) */
(PID.TID 0000.0001)                   F
(PID.TID 0000.0001)     ;
(PID.TID 0000.0001) usingCurvilinearGrid = /* Curvilinear coordinates flag ( True/False ) */
(PID.TID 0000.0001)                   F
(PID.TID 0000.0001)     ;
(PID.TID 0000.0001) useMin4hFacEdges = /* set hFacW,S as minimum of adjacent hFacC factor */
(PID.TID 0000.0001)                   F
(PID.TID 0000.0001)     ;
(PID.TID 0000.0001) selectSigmaCoord = /* Hybrid-Sigma Vert. Coordinate option */
(PID.TID 0000.0001)                       0
(PID.TID 0000.0001)     ;
(PID.TID 0000.0001) rSigmaBnd = /* r/sigma transition ( units of r ==  m ) */
(PID.TID 0000.0001)                 1.234567000000000E+05
(PID.TID 0000.0001)     ;
(PID.TID 0000.0001) rkSign =   /* index orientation relative to vertical coordinate */
(PID.TID 0000.0001)                -1.000000000000000E+00
(PID.TID 0000.0001)     ;
(PID.TID 0000.0001) gravitySign = /* gravity orientation relative to vertical coordinate */
(PID.TID 0000.0001)                -1.000000000000000E+00
(PID.TID 0000.0001)     ;
(PID.TID 0000.0001) seaLev_Z =  /* reference height of sea-level [m] */
(PID.TID 0000.0001)                 0.000000000000000E+00
(PID.TID 0000.0001)     ;
(PID.TID 0000.0001) top_Pres =  /* reference pressure at the top [Pa] */
(PID.TID 0000.0001)                 0.000000000000000E+00
(PID.TID 0000.0001)     ;
(PID.TID 0000.0001) mass2rUnit = /* convert mass per unit area [kg/m2] to r-units [m] */
(PID.TID 0000.0001)                 9.719117504130624E-04
(PID.TID 0000.0001)     ;
(PID.TID 0000.0001) rUnit2mass = /* convert r-units [m] to mass per unit area [kg/m2] */
(PID.TID 0000.0001)                 1.028900000000000E+03
(PID.TID 0000.0001)     ;
(PID.TID 0000.0001) drC =   /* C spacing ( units of r ) */
(PID.TID 0000.0001)                 5.500000000000000E+00,      /* K =  1 */
(PID.TID 0000.0001)    59 @  1.100000000000000E+01,             /* K =  2: 60 */
(PID.TID 0000.0001)                 5.500000000000000E+00       /* K = 61 */
(PID.TID 0000.0001)     ;
(PID.TID 0000.0001) drF =   /* W spacing ( units of r ) */
(PID.TID 0000.0001)    60 @  1.100000000000000E+01              /* K =  1: 60 */
(PID.TID 0000.0001)     ;
(PID.TID 0000.0001) delX = /* U spacing ( m - cartesian, degrees - spherical ) */
(PID.TID 0000.0001)    40 @  2.306664021767681E+02              /* I =  1: 40 */
(PID.TID 0000.0001)     ;
(PID.TID 0000.0001) delY = /* V spacing ( m - cartesian, degrees - spherical ) */
(PID.TID 0000.0001)    20 @  8.421052631578948E+01              /* J =  1: 20 */
(PID.TID 0000.0001)     ;
(PID.TID 0000.0001) xgOrigin = /* X-axis origin of West  edge (cartesian: m, lat-lon: deg) */
(PID.TID 0000.0001)                 0.000000000000000E+00
(PID.TID 0000.0001)     ;
(PID.TID 0000.0001) ygOrigin = /* Y-axis origin of South edge (cartesian: m, lat-lon: deg) */
(PID.TID 0000.0001)                -8.000000000000000E+01
(PID.TID 0000.0001)     ;
(PID.TID 0000.0001) rSphere =  /* Radius ( ignored - cartesian, m - spherical ) */
(PID.TID 0000.0001)                 6.370000000000000E+06
(PID.TID 0000.0001)     ;
(PID.TID 0000.0001) deepAtmosphere = /* Deep/Shallow Atmosphere flag (True/False) */
(PID.TID 0000.0001)                   F
(PID.TID 0000.0001)     ;
(PID.TID 0000.0001) xC =  /* xC(:,1,:,1) : P-point X coord ( deg. or m if cartesian) */
(PID.TID 0000.0001)                 1.153332010883840E+02,      /* I =  1 */
(PID.TID 0000.0001)                 3.459996032651521E+02,      /* I =  2 */
(PID.TID 0000.0001)                 5.766660054419202E+02,      /* I =  3 */
(PID.TID 0000.0001)                 8.073324076186883E+02,      /* I =  4 */
(PID.TID 0000.0001)                 1.037998809795457E+03,      /* I =  5 */
(PID.TID 0000.0001)                 1.268665211972224E+03,      /* I =  6 */
(PID.TID 0000.0001)                 1.499331614148993E+03,      /* I =  7 */
(PID.TID 0000.0001)                 1.729998016325761E+03,      /* I =  8 */
(PID.TID 0000.0001)                 1.960664418502529E+03,      /* I =  9 */
(PID.TID 0000.0001)                 2.191330820679297E+03       /* I = 10 */
(PID.TID 0000.0001)     ;
(PID.TID 0000.0001) yC =  /* yC(1,:,1,:) : P-point Y coord ( deg. or m if cartesian) */
(PID.TID 0000.0001)                -3.789473684210526E+01,      /* J =  1 */
(PID.TID 0000.0001)                 4.631578947368422E+01,      /* J =  2 */
(PID.TID 0000.0001)                 1.305263157894737E+02,      /* J =  3 */
(PID.TID 0000.0001)                 2.147368421052632E+02,      /* J =  4 */
(PID.TID 0000.0001)                 2.989473684210527E+02       /* J =  5 */
(PID.TID 0000.0001)     ;
(PID.TID 0000.0001) rcoord = /* P-point R coordinate (  units of r ) */
(PID.TID 0000.0001)                -5.500000000000000E+00,      /* K =  1 */
(PID.TID 0000.0001)                -1.650000000000000E+01,      /* K =  2 */
(PID.TID 0000.0001)                -2.750000000000000E+01,      /* K =  3 */
(PID.TID 0000.0001)                -3.850000000000000E+01,      /* K =  4 */
(PID.TID 0000.0001)                -4.950000000000000E+01,      /* K =  5 */
(PID.TID 0000.0001)                -6.050000000000000E+01,      /* K =  6 */
(PID.TID 0000.0001)                -7.150000000000000E+01,      /* K =  7 */
(PID.TID 0000.0001)                -8.250000000000000E+01,      /* K =  8 */
(PID.TID 0000.0001)                -9.350000000000000E+01,      /* K =  9 */
(PID.TID 0000.0001)                -1.045000000000000E+02,      /* K = 10 */
(PID.TID 0000.0001)                -1.155000000000000E+02,      /* K = 11 */
(PID.TID 0000.0001)                -1.265000000000000E+02,      /* K = 12 */
(PID.TID 0000.0001)                -1.375000000000000E+02,      /* K = 13 */
(PID.TID 0000.0001)                -1.485000000000000E+02,      /* K = 14 */
(PID.TID 0000.0001)                -1.595000000000000E+02,      /* K = 15 */
(PID.TID 0000.0001)                -1.705000000000000E+02,      /* K = 16 */
(PID.TID 0000.0001)                -1.815000000000000E+02,      /* K = 17 */
(PID.TID 0000.0001)                -1.925000000000000E+02,      /* K = 18 */
(PID.TID 0000.0001)                -2.035000000000000E+02,      /* K = 19 */
(PID.TID 0000.0001)                -2.145000000000000E+02,      /* K = 20 */
(PID.TID 0000.0001)                -2.255000000000000E+02,      /* K = 21 */
(PID.TID 0000.0001)                -2.365000000000000E+02,      /* K = 22 */
(PID.TID 0000.0001)                -2.475000000000000E+02,      /* K = 23 */
(PID.TID 0000.0001)                -2.585000000000000E+02,      /* K = 24 */
(PID.TID 0000.0001)                -2.695000000000000E+02,      /* K = 25 */
(PID.TID 0000.0001)                -2.805000000000000E+02,      /* K = 26 */
(PID.TID 0000.0001)                -2.915000000000000E+02,      /* K = 27 */
(PID.TID 0000.0001)                -3.025000000000000E+02,      /* K = 28 */
(PID.TID 0000.0001)                -3.135000000000000E+02,      /* K = 29 */
(PID.TID 0000.0001)                -3.245000000000000E+02,      /* K = 30 */
(PID.TID 0000.0001)                -3.355000000000000E+02,      /* K = 31 */
(PID.TID 0000.0001)                -3.465000000000000E+02,      /* K = 32 */
(PID.TID 0000.0001)                -3.575000000000000E+02,      /* K = 33 */
(PID.TID 0000.0001)                -3.685000000000000E+02,      /* K = 34 */
(PID.TID 0000.0001)                -3.795000000000000E+02,      /* K = 35 */
(PID.TID 0000.0001)                -3.905000000000000E+02,      /* K = 36 */
(PID.TID 0000.0001)                -4.015000000000000E+02,      /* K = 37 */
(PID.TID 0000.0001)                -4.125000000000000E+02,      /* K = 38 */
(PID.TID 0000.0001)                -4.235000000000000E+02,      /* K = 39 */
(PID.TID 0000.0001)                -4.345000000000000E+02,      /* K = 40 */
(PID.TID 0000.0001)                -4.455000000000000E+02,      /* K = 41 */
(PID.TID 0000.0001)                -4.565000000000000E+02,      /* K = 42 */
(PID.TID 0000.0001)                -4.675000000000000E+02,      /* K = 43 */
(PID.TID 0000.0001)                -4.785000000000000E+02,      /* K = 44 */
(PID.TID 0000.0001)                -4.895000000000000E+02,      /* K = 45 */
(PID.TID 0000.0001)                -5.005000000000000E+02,      /* K = 46 */
(PID.TID 0000.0001)                -5.115000000000000E+02,      /* K = 47 */
(PID.TID 0000.0001)                -5.225000000000000E+02,      /* K = 48 */
(PID.TID 0000.0001)                -5.335000000000000E+02,      /* K = 49 */
(PID.TID 0000.0001)                -5.445000000000000E+02,      /* K = 50 */
(PID.TID 0000.0001)                -5.555000000000000E+02,      /* K = 51 */
(PID.TID 0000.0001)                -5.665000000000000E+02,      /* K = 52 */
(PID.TID 0000.0001)                -5.775000000000000E+02,      /* K = 53 */
(PID.TID 0000.0001)                -5.885000000000000E+02,      /* K = 54 */
(PID.TID 0000.0001)                -5.995000000000000E+02,      /* K = 55 */
(PID.TID 0000.0001)                -6.105000000000000E+02,      /* K = 56 */
(PID.TID 0000.0001)                -6.215000000000000E+02,      /* K = 57 */
(PID.TID 0000.0001)                -6.325000000000000E+02,      /* K = 58 */
(PID.TID 0000.0001)                -6.435000000000000E+02,      /* K = 59 */
(PID.TID 0000.0001)                -6.545000000000000E+02       /* K = 60 */
(PID.TID 0000.0001)     ;
(PID.TID 0000.0001) rF =   /* W-Interf. R coordinate (  units of r ) */
(PID.TID 0000.0001)                 0.000000000000000E+00,      /* K =  1 */
(PID.TID 0000.0001)                -1.100000000000000E+01,      /* K =  2 */
(PID.TID 0000.0001)                -2.200000000000000E+01,      /* K =  3 */
(PID.TID 0000.0001)                -3.300000000000000E+01,      /* K =  4 */
(PID.TID 0000.0001)                -4.400000000000000E+01,      /* K =  5 */
(PID.TID 0000.0001)                -5.500000000000000E+01,      /* K =  6 */
(PID.TID 0000.0001)                -6.600000000000000E+01,      /* K =  7 */
(PID.TID 0000.0001)                -7.700000000000000E+01,      /* K =  8 */
(PID.TID 0000.0001)                -8.800000000000000E+01,      /* K =  9 */
(PID.TID 0000.0001)                -9.900000000000000E+01,      /* K = 10 */
(PID.TID 0000.0001)                -1.100000000000000E+02,      /* K = 11 */
(PID.TID 0000.0001)                -1.210000000000000E+02,      /* K = 12 */
(PID.TID 0000.0001)                -1.320000000000000E+02,      /* K = 13 */
(PID.TID 0000.0001)                -1.430000000000000E+02,      /* K = 14 */
(PID.TID 0000.0001)                -1.540000000000000E+02,      /* K = 15 */
(PID.TID 0000.0001)                -1.650000000000000E+02,      /* K = 16 */
(PID.TID 0000.0001)                -1.760000000000000E+02,      /* K = 17 */
(PID.TID 0000.0001)                -1.870000000000000E+02,      /* K = 18 */
(PID.TID 0000.0001)                -1.980000000000000E+02,      /* K = 19 */
(PID.TID 0000.0001)                -2.090000000000000E+02,      /* K = 20 */
(PID.TID 0000.0001)                -2.200000000000000E+02,      /* K = 21 */
(PID.TID 0000.0001)                -2.310000000000000E+02,      /* K = 22 */
(PID.TID 0000.0001)                -2.420000000000000E+02,      /* K = 23 */
(PID.TID 0000.0001)                -2.530000000000000E+02,      /* K = 24 */
(PID.TID 0000.0001)                -2.640000000000000E+02,      /* K = 25 */
(PID.TID 0000.0001)                -2.750000000000000E+02,      /* K = 26 */
(PID.TID 0000.0001)                -2.860000000000000E+02,      /* K = 27 */
(PID.TID 0000.0001)                -2.970000000000000E+02,      /* K = 28 */
(PID.TID 0000.0001)                -3.080000000000000E+02,      /* K = 29 */
(PID.TID 0000.0001)                -3.190000000000000E+02,      /* K = 30 */
(PID.TID 0000.0001)                -3.300000000000000E+02,      /* K = 31 */
(PID.TID 0000.0001)                -3.410000000000000E+02,      /* K = 32 */
(PID.TID 0000.0001)                -3.520000000000000E+02,      /* K = 33 */
(PID.TID 0000.0001)                -3.630000000000000E+02,      /* K = 34 */
(PID.TID 0000.0001)                -3.740000000000000E+02,      /* K = 35 */
(PID.TID 0000.0001)                -3.850000000000000E+02,      /* K = 36 */
(PID.TID 0000.0001)                -3.960000000000000E+02,      /* K = 37 */
(PID.TID 0000.0001)                -4.070000000000000E+02,      /* K = 38 */
(PID.TID 0000.0001)                -4.180000000000000E+02,      /* K = 39 */
(PID.TID 0000.0001)                -4.290000000000000E+02,      /* K = 40 */
(PID.TID 0000.0001)                -4.400000000000000E+02,      /* K = 41 */
(PID.TID 0000.0001)                -4.510000000000000E+02,      /* K = 42 */
(PID.TID 0000.0001)                -4.620000000000000E+02,      /* K = 43 */
(PID.TID 0000.0001)                -4.730000000000000E+02,      /* K = 44 */
(PID.TID 0000.0001)                -4.840000000000000E+02,      /* K = 45 */
(PID.TID 0000.0001)                -4.950000000000000E+02,      /* K = 46 */
(PID.TID 0000.0001)                -5.060000000000000E+02,      /* K = 47 */
(PID.TID 0000.0001)                -5.170000000000000E+02,      /* K = 48 */
(PID.TID 0000.0001)                -5.280000000000000E+02,      /* K = 49 */
(PID.TID 0000.0001)                -5.390000000000000E+02,      /* K = 50 */
(PID.TID 0000.0001)                -5.500000000000000E+02,      /* K = 51 */
(PID.TID 0000.0001)                -5.610000000000000E+02,      /* K = 52 */
(PID.TID 0000.0001)                -5.720000000000000E+02,      /* K = 53 */
(PID.TID 0000.0001)                -5.830000000000000E+02,      /* K = 54 */
(PID.TID 0000.0001)                -5.940000000000000E+02,      /* K = 55 */
(PID.TID 0000.0001)                -6.050000000000000E+02,      /* K = 56 */
(PID.TID 0000.0001)                -6.160000000000000E+02,      /* K = 57 */
(PID.TID 0000.0001)                -6.270000000000000E+02,      /* K = 58 */
(PID.TID 0000.0001)                -6.380000000000000E+02,      /* K = 59 */
(PID.TID 0000.0001)                -6.490000000000000E+02,      /* K = 60 */
(PID.TID 0000.0001)                -6.600000000000000E+02       /* K = 61 */
(PID.TID 0000.0001)     ;
(PID.TID 0000.0001) deepFacC = /* deep-model grid factor @ cell-Center (-) */
(PID.TID 0000.0001)    60 @  1.000000000000000E+00              /* K =  1: 60 */
(PID.TID 0000.0001)     ;
(PID.TID 0000.0001) deepFacF = /* deep-model grid factor @ W-Interface (-) */
(PID.TID 0000.0001)    61 @  1.000000000000000E+00              /* K =  1: 61 */
(PID.TID 0000.0001)     ;
(PID.TID 0000.0001) rVel2wUnit = /* convert units: rVel -> wSpeed (=1 if z-coord)*/
(PID.TID 0000.0001)    61 @  1.000000000000000E+00              /* K =  1: 61 */
(PID.TID 0000.0001)     ;
(PID.TID 0000.0001) wUnit2rVel = /* convert units: wSpeed -> rVel (=1 if z-coord)*/
(PID.TID 0000.0001)    61 @  1.000000000000000E+00              /* K =  1: 61 */
(PID.TID 0000.0001)     ;
(PID.TID 0000.0001) dBdrRef = /* Vertical grad. of reference buoyancy [(m/s/r)^2] */
(PID.TID 0000.0001)    60 @  0.000000000000000E+00              /* K =  1: 60 */
(PID.TID 0000.0001)     ;
(PID.TID 0000.0001) rotateGrid = /* use rotated grid ( True/False ) */
(PID.TID 0000.0001)                   F
(PID.TID 0000.0001)     ;
(PID.TID 0000.0001) phiEuler = /* Euler angle, rotation about original z-coordinate [rad] */
(PID.TID 0000.0001)                 0.000000000000000E+00
(PID.TID 0000.0001)     ;
(PID.TID 0000.0001) thetaEuler = /* Euler angle, rotation about new x-coordinate [rad] */
(PID.TID 0000.0001)                 0.000000000000000E+00
(PID.TID 0000.0001)     ;
(PID.TID 0000.0001) psiEuler = /* Euler angle, rotation about new z-coordinate [rad] */
(PID.TID 0000.0001)                 0.000000000000000E+00
(PID.TID 0000.0001)     ;
(PID.TID 0000.0001) dxF =  /* dxF(:,1,:,1) ( units: m ) */
(PID.TID 0000.0001)    10 @  2.306664021767681E+02              /* I =  1: 10 */
(PID.TID 0000.0001)     ;
(PID.TID 0000.0001) dxF =  /* dxF(1,:,1,:) ( units: m ) */
(PID.TID 0000.0001)     5 @  2.306664021767681E+02              /* J =  1:  5 */
(PID.TID 0000.0001)     ;
(PID.TID 0000.0001) dyF =  /* dyF(:,1,:,1) ( units: m ) */
(PID.TID 0000.0001)    10 @  8.421052631578948E+01              /* I =  1: 10 */
(PID.TID 0000.0001)     ;
(PID.TID 0000.0001) dyF =  /* dyF(1,:,1,:) ( units: m ) */
(PID.TID 0000.0001)     5 @  8.421052631578948E+01              /* J =  1:  5 */
(PID.TID 0000.0001)     ;
(PID.TID 0000.0001) dxG =  /* dxG(:,1,:,1) ( units: m ) */
(PID.TID 0000.0001)    10 @  2.306664021767681E+02              /* I =  1: 10 */
(PID.TID 0000.0001)     ;
(PID.TID 0000.0001) dxG =  /* dxG(1,:,1,:) ( units: m ) */
(PID.TID 0000.0001)     5 @  2.306664021767681E+02              /* J =  1:  5 */
(PID.TID 0000.0001)     ;
(PID.TID 0000.0001) dyG =  /* dyG(:,1,:,1) ( units: m ) */
(PID.TID 0000.0001)    10 @  8.421052631578948E+01              /* I =  1: 10 */
(PID.TID 0000.0001)     ;
(PID.TID 0000.0001) dyG =  /* dyG(1,:,1,:) ( units: m ) */
(PID.TID 0000.0001)     5 @  8.421052631578948E+01              /* J =  1:  5 */
(PID.TID 0000.0001)     ;
(PID.TID 0000.0001) dxC =  /* dxC(:,1,:,1) ( units: m ) */
(PID.TID 0000.0001)    10 @  2.306664021767681E+02              /* I =  1: 10 */
(PID.TID 0000.0001)     ;
(PID.TID 0000.0001) dxC =  /* dxC(1,:,1,:) ( units: m ) */
(PID.TID 0000.0001)     5 @  2.306664021767681E+02              /* J =  1:  5 */
(PID.TID 0000.0001)     ;
(PID.TID 0000.0001) dyC =  /* dyC(:,1,:,1) ( units: m ) */
(PID.TID 0000.0001)    10 @  8.421052631578948E+01              /* I =  1: 10 */
(PID.TID 0000.0001)     ;
(PID.TID 0000.0001) dyC =  /* dyC(1,:,1,:) ( units: m ) */
(PID.TID 0000.0001)     5 @  8.421052631578948E+01              /* J =  1:  5 */
(PID.TID 0000.0001)     ;
(PID.TID 0000.0001) dxV =  /* dxV(:,1,:,1) ( units: m ) */
(PID.TID 0000.0001)    10 @  2.306664021767681E+02              /* I =  1: 10 */
(PID.TID 0000.0001)     ;
(PID.TID 0000.0001) dxV =  /* dxV(1,:,1,:) ( units: m ) */
(PID.TID 0000.0001)     5 @  2.306664021767681E+02              /* J =  1:  5 */
(PID.TID 0000.0001)     ;
(PID.TID 0000.0001) dyU =  /* dyU(:,1,:,1) ( units: m ) */
(PID.TID 0000.0001)    10 @  8.421052631578948E+01              /* I =  1: 10 */
(PID.TID 0000.0001)     ;
(PID.TID 0000.0001) dyU =  /* dyU(1,:,1,:) ( units: m ) */
(PID.TID 0000.0001)     5 @  8.421052631578948E+01              /* J =  1:  5 */
(PID.TID 0000.0001)     ;
(PID.TID 0000.0001) rA  =  /* rA (:,1,:,1) ( units: m^2 ) */
(PID.TID 0000.0001)    10 @  1.942453913067521E+04              /* I =  1: 10 */
(PID.TID 0000.0001)     ;
(PID.TID 0000.0001) rA  =  /* rA (1,:,1,:) ( units: m^2 ) */
(PID.TID 0000.0001)     5 @  1.942453913067521E+04              /* J =  1:  5 */
(PID.TID 0000.0001)     ;
(PID.TID 0000.0001) rAw =  /* rAw(:,1,:,1) ( units: m^2 ) */
(PID.TID 0000.0001)    10 @  1.942453913067521E+04              /* I =  1: 10 */
(PID.TID 0000.0001)     ;
(PID.TID 0000.0001) rAw =  /* rAw(1,:,1,:) ( units: m^2 ) */
(PID.TID 0000.0001)     5 @  1.942453913067521E+04              /* J =  1:  5 */
(PID.TID 0000.0001)     ;
(PID.TID 0000.0001) rAs =  /* rAs(:,1,:,1) ( units: m^2 ) */
(PID.TID 0000.0001)    10 @  1.942453913067521E+04              /* I =  1: 10 */
(PID.TID 0000.0001)     ;
(PID.TID 0000.0001) rAs =  /* rAs(1,:,1,:) ( units: m^2 ) */
(PID.TID 0000.0001)     5 @  1.942453913067521E+04              /* J =  1:  5 */
(PID.TID 0000.0001)     ;
(PID.TID 0000.0001) globalArea = /* Integrated horizontal Area (m^2) */
(PID.TID 0000.0001)                 9.537448713161534E+06
(PID.TID 0000.0001)     ;
(PID.TID 0000.0001) // =======================================================
(PID.TID 0000.0001) // End of Model config. summary
(PID.TID 0000.0001) // =======================================================
(PID.TID 0000.0001) 
(PID.TID 0000.0001) == Packages configuration : Check & print summary ==
(PID.TID 0000.0001) 
(PID.TID 0000.0001) SHELFICE_CHECK: #define ALLOW_SHELFICE
(PID.TID 0000.0001) 
(PID.TID 0000.0001) SHELFICE_CHECK: start of SHELFICE config. summary
(PID.TID 0000.0001) SHELFICEisOn = /* package is turned on */
(PID.TID 0000.0001)                   T
(PID.TID 0000.0001)     ;
(PID.TID 0000.0001) SHELFICEwriteState  = /* do simple standard output */
(PID.TID 0000.0001)                   T
(PID.TID 0000.0001)     ;
(PID.TID 0000.0001) SHELFICE_dump_mdsio = /* use mdsio for snapshots */
(PID.TID 0000.0001)                   T
(PID.TID 0000.0001)     ;
(PID.TID 0000.0001) SHELFICE_tave_mdsio = /* use mdsio for time averages */
(PID.TID 0000.0001)                   T
(PID.TID 0000.0001)     ;
(PID.TID 0000.0001) SHELFICE_dump_mnc   = /* use netcdf for snapshots */
(PID.TID 0000.0001)                   F
(PID.TID 0000.0001)     ;
(PID.TID 0000.0001) SHELFICE_tave_mnc   = /* use netcdf for time averages */
(PID.TID 0000.0001)                   F
(PID.TID 0000.0001)     ;
(PID.TID 0000.0001) SHELFICE_dumpFreq = /* analoguous to dumpFreq */
(PID.TID 0000.0001)                 2.592000000000000E+06
(PID.TID 0000.0001)     ;
(PID.TID 0000.0001) SHELFICE_taveFreq = /* analoguous to taveFreq */
(PID.TID 0000.0001)                 0.000000000000000E+00
(PID.TID 0000.0001)     ;
(PID.TID 0000.0001) useISOMIPTD = /* use simple isomip thermodynamics */
(PID.TID 0000.0001)                   F
(PID.TID 0000.0001)     ;
(PID.TID 0000.0001) SHELFICEconserve = /* use a conservative form of boundary conditions */
(PID.TID 0000.0001)                   T
(PID.TID 0000.0001)     ;
(PID.TID 0000.0001) SHELFICEboundaryLayer = /* use simple boundary layer scheme to suppress noise */
(PID.TID 0000.0001)                   T
(PID.TID 0000.0001)     ;
(PID.TID 0000.0001) SHELFICEadvDiffHeatFlux = /* use adv.-diff. instead of just diff. heat flux into the ice shelf */
(PID.TID 0000.0001)                   F
(PID.TID 0000.0001)     ;
(PID.TID 0000.0001) SHELFICEMassStepping = /* step forward ice shelf mass/thickness */
(PID.TID 0000.0001)                   F
(PID.TID 0000.0001)     ;
(PID.TID 0000.0001) no_slip_shelfice = /* use no slip boundary conditions */
(PID.TID 0000.0001)                   F
(PID.TID 0000.0001)     ;
(PID.TID 0000.0001) SHELFICEdragLinear    = /* linear drag coefficient */
(PID.TID 0000.0001)                 0.000000000000000E+00
(PID.TID 0000.0001)     ;
(PID.TID 0000.0001) SHELFICEdragQuadratic = /* quadratic drag coefficient */
(PID.TID 0000.0001)                 5.000000000000000E-03
(PID.TID 0000.0001)     ;
(PID.TID 0000.0001) SHELFICElatentHeat      = /* latent heat of ice */
(PID.TID 0000.0001)                 3.340000000000000E+05
(PID.TID 0000.0001)     ;
(PID.TID 0000.0001) SHELFICEheatCapacity_Cp = /* heat capacity of ice shelf */
(PID.TID 0000.0001)                 2.000000000000000E+03
(PID.TID 0000.0001)     ;
(PID.TID 0000.0001) rhoShelfice   = /* density of ice shelf */
(PID.TID 0000.0001)                 9.170000000000000E+02
(PID.TID 0000.0001)     ;
(PID.TID 0000.0001) SHELFICEkappa = /* thermal conductivity of ice shelf */
(PID.TID 0000.0001)                 1.540000000000000E-06
(PID.TID 0000.0001)     ;
(PID.TID 0000.0001) SHELFICEthetaSurface = /* surface temperature above i.s. */
(PID.TID 0000.0001)                -2.000000000000000E+01
(PID.TID 0000.0001)     ;
(PID.TID 0000.0001) SHELFICEheatTransCoeff = /* heat transfer coefficient */
(PID.TID 0000.0001)                 1.000000000000000E-04
(PID.TID 0000.0001)     ;
(PID.TID 0000.0001) SHELFICEsaltTransCoeff = /* salt transfer coefficient */
(PID.TID 0000.0001)                 5.050000000000000E-07
(PID.TID 0000.0001)     ;
(PID.TID 0000.0001) SHELFICEuseGammaFrict = /* use velocity dependent exchange coefficients */
(PID.TID 0000.0001)                   T
(PID.TID 0000.0001)     ;
(PID.TID 0000.0001) shiCdrag   = /* quadr. drag coefficient for uStar */
(PID.TID 0000.0001)                 5.000000000000000E-03
(PID.TID 0000.0001)     ;
(PID.TID 0000.0001) shiZetaN   = /* parameter for gammaTurb */
(PID.TID 0000.0001)                 5.200000000000000E-02
(PID.TID 0000.0001)     ;
(PID.TID 0000.0001) shiRc      = /* parameter for gammaTurb (not used) */
(PID.TID 0000.0001)                 2.000000000000000E-01
(PID.TID 0000.0001)     ;
(PID.TID 0000.0001) shiPrandtl = /* const. Prandtl No. for gammaTurb */
(PID.TID 0000.0001)                 1.380000000000000E+01
(PID.TID 0000.0001)     ;
(PID.TID 0000.0001) shiSchmidt = /* const. Schmidt No. for gammaTurb */
(PID.TID 0000.0001)                 2.432000000000000E+03
(PID.TID 0000.0001)     ;
(PID.TID 0000.0001) shiKinVisc = /* const. kin. viscosity for gammaTurb */
(PID.TID 0000.0001)                 1.950000000000000E-06
(PID.TID 0000.0001)     ;
(PID.TID 0000.0001) SHELFICEloadAnomalyFile = /* file name of loaded loadAnomaly field */
(PID.TID 0000.0001)               'phi0surf'
(PID.TID 0000.0001)     ;
(PID.TID 0000.0001) SHELFICEmassFile = /* file name of loaded mass field */
(PID.TID 0000.0001)               ''
(PID.TID 0000.0001)     ;
(PID.TID 0000.0001) SHELFICEtopoFile = /* file name of loaded under-ice topography */
(PID.TID 0000.0001)               'icetopo'
(PID.TID 0000.0001)     ;
(PID.TID 0000.0001) SHELFICEMassDynTendFile = /* file name of loaded dynamic mass tendency field */
(PID.TID 0000.0001)               ''
(PID.TID 0000.0001)     ;
(PID.TID 0000.0001) SHELFICE_CHECK: end of SHELFICE config. summary
(PID.TID 0000.0001) GAD_CHECK: #define ALLOW_GENERIC_ADVDIFF
(PID.TID 0000.0001) // =======================================================
(PID.TID 0000.0001) // Check Model config. (CONFIG_CHECK):
(PID.TID 0000.0001) // CONFIG_CHECK : Normal End
(PID.TID 0000.0001) // =======================================================
(PID.TID 0000.0001) 
(PID.TID 0000.0001) Start initial hydrostatic pressure computation
(PID.TID 0000.0001) Pressure is predetermined for buoyancyRelation OCEANIC
(PID.TID 0000.0001) 
(PID.TID 0000.0001) // =======================================================
(PID.TID 0000.0001) // Model current state
(PID.TID 0000.0001) // =======================================================
(PID.TID 0000.0001) 
(PID.TID 0000.0001) // =======================================================
(PID.TID 0000.0001) // Begin MONITOR dynamic field statistics
(PID.TID 0000.0001) // =======================================================
(PID.TID 0000.0001) %MON time_tsnumber                =                     0
(PID.TID 0000.0001) %MON time_secondsf                =   0.0000000000000E+00
(PID.TID 0000.0001) %MON dynstat_eta_max              =   0.0000000000000E+00
(PID.TID 0000.0001) %MON dynstat_eta_min              =   0.0000000000000E+00
(PID.TID 0000.0001) %MON dynstat_eta_mean             =   0.0000000000000E+00
(PID.TID 0000.0001) %MON dynstat_eta_sd               =   0.0000000000000E+00
(PID.TID 0000.0001) %MON dynstat_eta_del2             =   0.0000000000000E+00
(PID.TID 0000.0001) %MON dynstat_uvel_max             =   0.0000000000000E+00
(PID.TID 0000.0001) %MON dynstat_uvel_min             =   0.0000000000000E+00
(PID.TID 0000.0001) %MON dynstat_uvel_mean            =   0.0000000000000E+00
(PID.TID 0000.0001) %MON dynstat_uvel_sd              =   0.0000000000000E+00
(PID.TID 0000.0001) %MON dynstat_uvel_del2            =   0.0000000000000E+00
(PID.TID 0000.0001) %MON dynstat_vvel_max             =   0.0000000000000E+00
(PID.TID 0000.0001) %MON dynstat_vvel_min             =   0.0000000000000E+00
(PID.TID 0000.0001) %MON dynstat_vvel_mean            =   0.0000000000000E+00
(PID.TID 0000.0001) %MON dynstat_vvel_sd              =   0.0000000000000E+00
(PID.TID 0000.0001) %MON dynstat_vvel_del2            =   0.0000000000000E+00
(PID.TID 0000.0001) %MON dynstat_wvel_max             =   0.0000000000000E+00
(PID.TID 0000.0001) %MON dynstat_wvel_min             =   0.0000000000000E+00
(PID.TID 0000.0001) %MON dynstat_wvel_mean            =   0.0000000000000E+00
(PID.TID 0000.0001) %MON dynstat_wvel_sd              =   0.0000000000000E+00
(PID.TID 0000.0001) %MON dynstat_wvel_del2            =   0.0000000000000E+00
(PID.TID 0000.0001) %MON dynstat_theta_max            =  -2.1000000000000E+00
(PID.TID 0000.0001) %MON dynstat_theta_min            =  -2.1000000000001E+00
(PID.TID 0000.0001) %MON dynstat_theta_mean           =  -2.1000000000001E+00
(PID.TID 0000.0001) %MON dynstat_theta_sd             =   5.1514348342607E-14
(PID.TID 0000.0001) %MON dynstat_theta_del2           =   0.0000000000000E+00
(PID.TID 0000.0001) %MON dynstat_salt_max             =   3.4500000000000E+01
(PID.TID 0000.0001) %MON dynstat_salt_min             =   3.4500000000000E+01
(PID.TID 0000.0001) %MON dynstat_salt_mean            =   3.4500000000000E+01
(PID.TID 0000.0001) %MON dynstat_salt_sd              =   9.9475983006414E-14
(PID.TID 0000.0001) %MON dynstat_salt_del2            =   0.0000000000000E+00
(PID.TID 0000.0001) %MON trAdv_CFL_u_max              =   0.0000000000000E+00
(PID.TID 0000.0001) %MON trAdv_CFL_v_max              =   0.0000000000000E+00
(PID.TID 0000.0001) %MON trAdv_CFL_w_max              =   0.0000000000000E+00
(PID.TID 0000.0001) %MON advcfl_uvel_max              =   0.0000000000000E+00
(PID.TID 0000.0001) %MON advcfl_vvel_max              =   0.0000000000000E+00
(PID.TID 0000.0001) %MON advcfl_wvel_max              =   0.0000000000000E+00
(PID.TID 0000.0001) %MON advcfl_W_hf_max              =   0.0000000000000E+00
(PID.TID 0000.0001) %MON pe_b_mean                    =   0.0000000000000E+00
(PID.TID 0000.0001) %MON ke_max                       =   0.0000000000000E+00
(PID.TID 0000.0001) %MON ke_mean                      =   0.0000000000000E+00
(PID.TID 0000.0001) %MON ke_vol                       =   1.8654725220387E+09
(PID.TID 0000.0001) %MON vort_r_min                   =   0.0000000000000E+00
(PID.TID 0000.0001) %MON vort_r_max                   =   0.0000000000000E+00
(PID.TID 0000.0001) %MON vort_a_mean                  =   1.0000782634673E-04
(PID.TID 0000.0001) %MON vort_a_sd                    =   3.2835414048834E-09
(PID.TID 0000.0001) %MON vort_p_mean                  =   1.1991916022492E-04
(PID.TID 0000.0001) %MON vort_p_sd                    =   8.1207627353952E-05
(PID.TID 0000.0001) %MON surfExpan_theta_mean         =   0.0000000000000E+00
(PID.TID 0000.0001) %MON surfExpan_salt_mean          =   0.0000000000000E+00
(PID.TID 0000.0001) // =======================================================
(PID.TID 0000.0001) // End MONITOR dynamic field statistics
(PID.TID 0000.0001) // =======================================================
(PID.TID 0000.0001) // =======================================================
(PID.TID 0000.0001) // Begin MONITOR dynamic field statistics
(PID.TID 0000.0001) // =======================================================
(PID.TID 0000.0001) %MON time_tsnumber                =                  3240
(PID.TID 0000.0001) %MON time_secondsf                =   2.5920000000000E+05
(PID.TID 0000.0001) %MON dynstat_eta_max              =   2.1286147045792E-01
(PID.TID 0000.0001) %MON dynstat_eta_min              =  -1.3652742640082E-01
(PID.TID 0000.0001) %MON dynstat_eta_mean             =  -1.4148012248001E-17
(PID.TID 0000.0001) %MON dynstat_eta_sd               =   6.3574484579144E-02
(PID.TID 0000.0001) %MON dynstat_eta_del2             =   1.3809492702081E-03
(PID.TID 0000.0001) %MON dynstat_uvel_max             =   1.3552514975781E-02
(PID.TID 0000.0001) %MON dynstat_uvel_min             =  -1.1392239060834E-02
(PID.TID 0000.0001) %MON dynstat_uvel_mean            =   4.6781831578457E-11
(PID.TID 0000.0001) %MON dynstat_uvel_sd              =   2.1032432347055E-03
(PID.TID 0000.0001) %MON dynstat_uvel_del2            =   1.8602666190416E-05
(PID.TID 0000.0001) %MON dynstat_vvel_max             =   9.1073432343685E-03
(PID.TID 0000.0001) %MON dynstat_vvel_min             =  -7.4049229041286E-03
(PID.TID 0000.0001) %MON dynstat_vvel_mean            =  -1.0414672273799E-11
(PID.TID 0000.0001) %MON dynstat_vvel_sd              =   6.8652218661538E-04
(PID.TID 0000.0001) %MON dynstat_vvel_del2            =   1.5346870934661E-05
(PID.TID 0000.0001) %MON dynstat_wvel_max             =   1.9341689000001E-03
(PID.TID 0000.0001) %MON dynstat_wvel_min             =  -1.4130741440255E-03
(PID.TID 0000.0001) %MON dynstat_wvel_mean            =   1.5049770394629E-11
(PID.TID 0000.0001) %MON dynstat_wvel_sd              =   2.5880403479778E-04
(PID.TID 0000.0001) %MON dynstat_wvel_del2            =   7.3482089383684E-06
(PID.TID 0000.0001) %MON dynstat_theta_max            =  -2.0997485433479E+00
(PID.TID 0000.0001) %MON dynstat_theta_min            =  -2.1075510020050E+00
(PID.TID 0000.0001) %MON dynstat_theta_mean           =  -2.1002190363811E+00
(PID.TID 0000.0001) %MON dynstat_theta_sd             =   6.3650481983465E-04
(PID.TID 0000.0001) %MON dynstat_theta_del2           =   6.0044700739546E-06
(PID.TID 0000.0001) %MON dynstat_salt_max             =   3.4500016701817E+01
(PID.TID 0000.0001) %MON dynstat_salt_min             =   3.4498047452775E+01
(PID.TID 0000.0001) %MON dynstat_salt_mean            =   3.4499924332598E+01
(PID.TID 0000.0001) %MON dynstat_salt_sd              =   2.0859471232363E-04
(PID.TID 0000.0001) %MON dynstat_salt_del2            =   1.6460226787871E-06
(PID.TID 0000.0001) %MON trAdv_CFL_u_max              =   4.7002996007697E-03
(PID.TID 0000.0001) %MON trAdv_CFL_v_max              =   8.6519760726500E-03
(PID.TID 0000.0001) %MON trAdv_CFL_w_max              =   1.4066682909092E-02
(PID.TID 0000.0001) %MON advcfl_uvel_max              =   4.7002996007697E-03
(PID.TID 0000.0001) %MON advcfl_vvel_max              =   8.6519760726500E-03
(PID.TID 0000.0001) %MON advcfl_wvel_max              =   1.4066682909092E-02
(PID.TID 0000.0001) %MON advcfl_W_hf_max              =   1.4066682909092E-02
(PID.TID 0000.0001) %MON pe_b_mean                    =   9.3049783264210E-05
(PID.TID 0000.0001) %MON ke_max                       =   5.6133902353770E-05
(PID.TID 0000.0001) %MON ke_mean                      =   2.3303748334418E-06
(PID.TID 0000.0001) %MON ke_vol                       =   1.8654725220387E+09
(PID.TID 0000.0001) %MON vort_r_min                   =  -1.7964675566547E-04
(PID.TID 0000.0001) %MON vort_r_max                   =   1.6093611533739E-04
(PID.TID 0000.0001) %MON vort_a_mean                  =   1.0000782634673E-04
(PID.TID 0000.0001) %MON vort_a_sd                    =   2.4527521279998E-05
(PID.TID 0000.0001) %MON vort_p_mean                  =   1.1991916022492E-04
(PID.TID 0000.0001) %MON vort_p_sd                    =   7.2044760705646E-05
(PID.TID 0000.0001) %MON surfExpan_theta_mean         =   2.7071896496564E-16
(PID.TID 0000.0001) %MON surfExpan_salt_mean          =  -1.8336380971662E-15
(PID.TID 0000.0001) // =======================================================
(PID.TID 0000.0001) // End MONITOR dynamic field statistics
(PID.TID 0000.0001) // =======================================================
(PID.TID 0000.0001) // =======================================================
(PID.TID 0000.0001) // Begin MONITOR dynamic field statistics
(PID.TID 0000.0001) // =======================================================
(PID.TID 0000.0001) %MON time_tsnumber                =                  6480
(PID.TID 0000.0001) %MON time_secondsf                =   5.1840000000000E+05
(PID.TID 0000.0001) %MON dynstat_eta_max              =   2.1282922518823E-01
(PID.TID 0000.0001) %MON dynstat_eta_min              =  -1.3647036803109E-01
(PID.TID 0000.0001) %MON dynstat_eta_mean             =   2.2192960389022E-18
(PID.TID 0000.0001) %MON dynstat_eta_sd               =   6.3550934026570E-02
(PID.TID 0000.0001) %MON dynstat_eta_del2             =   1.3804072809094E-03
(PID.TID 0000.0001) %MON dynstat_uvel_max             =   2.3104078632074E-02
(PID.TID 0000.0001) %MON dynstat_uvel_min             =  -2.0225958739471E-02
(PID.TID 0000.0001) %MON dynstat_uvel_mean            =   1.5963221459265E-10
(PID.TID 0000.0001) %MON dynstat_uvel_sd              =   3.9637340627191E-03
(PID.TID 0000.0001) %MON dynstat_uvel_del2            =   2.6453836589165E-05
(PID.TID 0000.0001) %MON dynstat_vvel_max             =   1.8705238107027E-02
(PID.TID 0000.0001) %MON dynstat_vvel_min             =  -1.4011217477519E-02
(PID.TID 0000.0001) %MON dynstat_vvel_mean            =   3.8916761913629E-11
(PID.TID 0000.0001) %MON dynstat_vvel_sd              =   1.3325440413618E-03
(PID.TID 0000.0001) %MON dynstat_vvel_del2            =   2.5480767702912E-05
(PID.TID 0000.0001) %MON dynstat_wvel_max             =   2.1251451210094E-03
(PID.TID 0000.0001) %MON dynstat_wvel_min             =  -1.4189059114406E-03
(PID.TID 0000.0001) %MON dynstat_wvel_mean            =   2.9790370001197E-11
(PID.TID 0000.0001) %MON dynstat_wvel_sd              =   2.4846378672308E-04
(PID.TID 0000.0001) %MON dynstat_wvel_del2            =   7.0285856211883E-06
(PID.TID 0000.0001) %MON dynstat_theta_max            =  -2.0997830617356E+00
(PID.TID 0000.0001) %MON dynstat_theta_min            =  -2.1267004626122E+00
(PID.TID 0000.0001) %MON dynstat_theta_mean           =  -2.1007568183480E+00
(PID.TID 0000.0001) %MON dynstat_theta_sd             =   1.8290773613741E-03
(PID.TID 0000.0001) %MON dynstat_theta_del2           =   1.2848731806243E-05
(PID.TID 0000.0001) %MON dynstat_salt_max             =   3.4500024452487E+01
(PID.TID 0000.0001) %MON dynstat_salt_min             =   3.4491499109744E+01
(PID.TID 0000.0001) %MON dynstat_salt_mean            =   3.4499717314807E+01
(PID.TID 0000.0001) %MON dynstat_salt_sd              =   6.5973021692220E-04
(PID.TID 0000.0001) %MON dynstat_salt_del2            =   3.3255611349623E-06
(PID.TID 0000.0001) %MON trAdv_CFL_u_max              =   8.0129844360666E-03
(PID.TID 0000.0001) %MON trAdv_CFL_v_max              =   1.7769976201676E-02
(PID.TID 0000.0001) %MON trAdv_CFL_w_max              =   1.5455600880068E-02
(PID.TID 0000.0001) %MON advcfl_uvel_max              =   8.0129844360666E-03
(PID.TID 0000.0001) %MON advcfl_vvel_max              =   1.7769976201676E-02
(PID.TID 0000.0001) %MON advcfl_wvel_max              =   1.5455600880068E-02
(PID.TID 0000.0001) %MON advcfl_W_hf_max              =   1.7742333430041E-02
(PID.TID 0000.0001) %MON pe_b_mean                    =   9.2980286291083E-05
(PID.TID 0000.0001) %MON ke_max                       =   2.3013809282484E-04
(PID.TID 0000.0001) %MON ke_mean                      =   8.3221598314026E-06
(PID.TID 0000.0001) %MON ke_vol                       =   1.8654725220387E+09
(PID.TID 0000.0001) %MON vort_r_min                   =  -2.4996253965856E-04
(PID.TID 0000.0001) %MON vort_r_max                   =   2.5340147421205E-04
(PID.TID 0000.0001) %MON vort_a_mean                  =   1.0000782634673E-04
(PID.TID 0000.0001) %MON vort_a_sd                    =   4.1286053738241E-05
(PID.TID 0000.0001) %MON vort_p_mean                  =   1.1991916022492E-04
(PID.TID 0000.0001) %MON vort_p_sd                    =   9.3931519405124E-05
(PID.TID 0000.0001) %MON surfExpan_theta_mean         =  -2.0305689778467E-13
(PID.TID 0000.0001) %MON surfExpan_salt_mean          =  -9.0366980835848E-14
(PID.TID 0000.0001) // =======================================================
(PID.TID 0000.0001) // End MONITOR dynamic field statistics
(PID.TID 0000.0001) // =======================================================
(PID.TID 0000.0001) // =======================================================
(PID.TID 0000.0001) // Begin MONITOR dynamic field statistics
(PID.TID 0000.0001) // =======================================================
(PID.TID 0000.0001) %MON time_tsnumber                =                  9720
(PID.TID 0000.0001) %MON time_secondsf                =   7.7760000000000E+05
(PID.TID 0000.0001) %MON dynstat_eta_max              =   2.1278665892537E-01
(PID.TID 0000.0001) %MON dynstat_eta_min              =  -1.3626277528395E-01
(PID.TID 0000.0001) %MON dynstat_eta_mean             =  -7.4901241312948E-18
(PID.TID 0000.0001) %MON dynstat_eta_sd               =   6.3509180820079E-02
(PID.TID 0000.0001) %MON dynstat_eta_del2             =   1.3797596092341E-03
(PID.TID 0000.0001) %MON dynstat_uvel_max             =   2.5985844298477E-02
(PID.TID 0000.0001) %MON dynstat_uvel_min             =  -3.7820822080846E-02
(PID.TID 0000.0001) %MON dynstat_uvel_mean            =  -9.1512311452514E-10
(PID.TID 0000.0001) %MON dynstat_uvel_sd              =   5.4406269312612E-03
(PID.TID 0000.0001) %MON dynstat_uvel_del2            =   3.0255991755163E-05
(PID.TID 0000.0001) %MON dynstat_vvel_max             =   2.0961886144241E-02
(PID.TID 0000.0001) %MON dynstat_vvel_min             =  -1.6854277074646E-02
(PID.TID 0000.0001) %MON dynstat_vvel_mean            =   6.2380214131292E-11
(PID.TID 0000.0001) %MON dynstat_vvel_sd              =   1.8593168182125E-03
(PID.TID 0000.0001) %MON dynstat_vvel_del2            =   3.1161186561551E-05
(PID.TID 0000.0001) %MON dynstat_wvel_max             =   2.3313930807964E-03
(PID.TID 0000.0001) %MON dynstat_wvel_min             =  -1.5792436162997E-03
(PID.TID 0000.0001) %MON dynstat_wvel_mean            =   4.9925511709036E-11
(PID.TID 0000.0001) %MON dynstat_wvel_sd              =   2.3615845753047E-04
(PID.TID 0000.0001) %MON dynstat_wvel_del2            =   6.1115364327914E-06
(PID.TID 0000.0001) %MON dynstat_theta_max            =  -2.0849640162342E+00
(PID.TID 0000.0001) %MON dynstat_theta_min            =  -2.1317008630654E+00
(PID.TID 0000.0001) %MON dynstat_theta_mean           =  -2.1014448851793E+00
(PID.TID 0000.0001) %MON dynstat_theta_sd             =   3.0961647840121E-03
(PID.TID 0000.0001) %MON dynstat_theta_del2           =   1.8094165293647E-05
(PID.TID 0000.0001) %MON dynstat_salt_max             =   3.4500031131585E+01
(PID.TID 0000.0001) %MON dynstat_salt_min             =   3.4489892659999E+01
(PID.TID 0000.0001) %MON dynstat_salt_mean            =   3.4499448365203E+01
(PID.TID 0000.0001) %MON dynstat_salt_sd              =   1.1852575074732E-03
(PID.TID 0000.0001) %MON dynstat_salt_del2            =   3.7977269750764E-06
(PID.TID 0000.0001) %MON trAdv_CFL_u_max              =   1.3117063160976E-02
(PID.TID 0000.0001) %MON trAdv_CFL_v_max              =   1.9913791837029E-02
(PID.TID 0000.0001) %MON trAdv_CFL_w_max              =   1.6955586042156E-02
(PID.TID 0000.0001) %MON advcfl_uvel_max              =   1.3117063160976E-02
(PID.TID 0000.0001) %MON advcfl_vvel_max              =   1.9913791837029E-02
(PID.TID 0000.0001) %MON advcfl_wvel_max              =   1.6955586042156E-02
(PID.TID 0000.0001) %MON advcfl_W_hf_max              =   1.9394512577046E-02
(PID.TID 0000.0001) %MON pe_b_mean                    =   9.2864493102572E-05
(PID.TID 0000.0001) %MON ke_max                       =   7.0181767841765E-04
(PID.TID 0000.0001) %MON ke_mean                      =   1.5729146755526E-05
(PID.TID 0000.0001) %MON ke_vol                       =   1.8654725220387E+09
(PID.TID 0000.0001) %MON vort_r_min                   =  -5.0504523244302E-04
(PID.TID 0000.0001) %MON vort_r_max                   =   3.2538470362792E-04
(PID.TID 0000.0001) %MON vort_a_mean                  =   1.0000782634673E-04
(PID.TID 0000.0001) %MON vort_a_sd                    =   5.3367086193859E-05
(PID.TID 0000.0001) %MON vort_p_mean                  =   1.1991916022492E-04
(PID.TID 0000.0001) %MON vort_p_sd                    =   1.2219307608381E-04
(PID.TID 0000.0001) %MON surfExpan_theta_mean         =  -3.0889372804765E-13
(PID.TID 0000.0001) %MON surfExpan_salt_mean          =  -2.3034121662558E-13
(PID.TID 0000.0001) // =======================================================
(PID.TID 0000.0001) // End MONITOR dynamic field statistics
(PID.TID 0000.0001) // =======================================================
(PID.TID 0000.0001) // =======================================================
(PID.TID 0000.0001) // Begin MONITOR dynamic field statistics
(PID.TID 0000.0001) // =======================================================
(PID.TID 0000.0001) %MON time_tsnumber                =                 12960
(PID.TID 0000.0001) %MON time_secondsf                =   1.0368000000000E+06
(PID.TID 0000.0001) %MON dynstat_eta_max              =   2.1275150747985E-01
(PID.TID 0000.0001) %MON dynstat_eta_min              =  -1.3614440595114E-01
(PID.TID 0000.0001) %MON dynstat_eta_mean             =  -6.9353001215692E-18
(PID.TID 0000.0001) %MON dynstat_eta_sd               =   6.3467659600720E-02
(PID.TID 0000.0001) %MON dynstat_eta_del2             =   1.3791709859079E-03
(PID.TID 0000.0001) %MON dynstat_uvel_max             =   2.5385667017271E-02
(PID.TID 0000.0001) %MON dynstat_uvel_min             =  -3.3072922169912E-02
(PID.TID 0000.0001) %MON dynstat_uvel_mean            =  -5.4162035119508E-10
(PID.TID 0000.0001) %MON dynstat_uvel_sd              =   5.1952722089144E-03
(PID.TID 0000.0001) %MON dynstat_uvel_del2            =   2.9974929290476E-05
(PID.TID 0000.0001) %MON dynstat_vvel_max             =   2.0203283340060E-02
(PID.TID 0000.0001) %MON dynstat_vvel_min             =  -1.1834245553143E-02
(PID.TID 0000.0001) %MON dynstat_vvel_mean            =   3.5023885117552E-11
(PID.TID 0000.0001) %MON dynstat_vvel_sd              =   2.0192615727590E-03
(PID.TID 0000.0001) %MON dynstat_vvel_del2            =   3.3502405438360E-05
(PID.TID 0000.0001) %MON dynstat_wvel_max             =   2.2718022910155E-03
(PID.TID 0000.0001) %MON dynstat_wvel_min             =  -2.0268790262783E-03
(PID.TID 0000.0001) %MON dynstat_wvel_mean            =   3.8420238506330E-11
(PID.TID 0000.0001) %MON dynstat_wvel_sd              =   1.9682585277446E-04
(PID.TID 0000.0001) %MON dynstat_wvel_del2            =   5.3539323364793E-06
(PID.TID 0000.0001) %MON dynstat_theta_max            =  -2.0972724516484E+00
(PID.TID 0000.0001) %MON dynstat_theta_min            =  -2.1362327507261E+00
(PID.TID 0000.0001) %MON dynstat_theta_mean           =  -2.1021064488645E+00
(PID.TID 0000.0001) %MON dynstat_theta_sd             =   4.0819112614218E-03
(PID.TID 0000.0001) %MON dynstat_theta_del2           =   2.0870748636293E-05
(PID.TID 0000.0001) %MON dynstat_salt_max             =   3.4500012928901E+01
(PID.TID 0000.0001) %MON dynstat_salt_min             =   3.4490908815355E+01
(PID.TID 0000.0001) %MON dynstat_salt_mean            =   3.4499190341947E+01
(PID.TID 0000.0001) %MON dynstat_salt_sd              =   1.6158630056263E-03
(PID.TID 0000.0001) %MON dynstat_salt_del2            =   3.4589219132278E-06
(PID.TID 0000.0001) %MON trAdv_CFL_u_max              =   1.1470390783506E-02
(PID.TID 0000.0001) %MON trAdv_CFL_v_max              =   1.9193119173057E-02
(PID.TID 0000.0001) %MON trAdv_CFL_w_max              =   1.6522198480113E-02
(PID.TID 0000.0001) %MON advcfl_uvel_max              =   1.1470390783506E-02
(PID.TID 0000.0001) %MON advcfl_vvel_max              =   1.9193119173057E-02
(PID.TID 0000.0001) %MON advcfl_wvel_max              =   1.6522198480113E-02
(PID.TID 0000.0001) %MON advcfl_W_hf_max              =   1.8829061661131E-02
(PID.TID 0000.0001) %MON pe_b_mean                    =   9.2748696164562E-05
(PID.TID 0000.0001) %MON ke_max                       =   4.8060675729265E-04
(PID.TID 0000.0001) %MON ke_mean                      =   1.4756098743751E-05
(PID.TID 0000.0001) %MON ke_vol                       =   1.8654725220387E+09
(PID.TID 0000.0001) %MON vort_r_min                   =  -3.9274095076770E-04
(PID.TID 0000.0001) %MON vort_r_max                   =   2.5762479838076E-04
(PID.TID 0000.0001) %MON vort_a_mean                  =   1.0000782634673E-04
(PID.TID 0000.0001) %MON vort_a_sd                    =   4.9648899974267E-05
(PID.TID 0000.0001) %MON vort_p_mean                  =   1.1991916022492E-04
(PID.TID 0000.0001) %MON vort_p_sd                    =   1.1116995375281E-04
(PID.TID 0000.0001) %MON surfExpan_theta_mean         =  -5.1408372154094E-13
(PID.TID 0000.0001) %MON surfExpan_salt_mean          =  -2.7440747787320E-13
(PID.TID 0000.0001) // =======================================================
(PID.TID 0000.0001) // End MONITOR dynamic field statistics
(PID.TID 0000.0001) // =======================================================
(PID.TID 0000.0001) // =======================================================
(PID.TID 0000.0001) // Begin MONITOR dynamic field statistics
(PID.TID 0000.0001) // =======================================================
(PID.TID 0000.0001) %MON time_tsnumber                =                 16200
(PID.TID 0000.0001) %MON time_secondsf                =   1.2960000000000E+06
(PID.TID 0000.0001) %MON dynstat_eta_max              =   2.1272251973066E-01
(PID.TID 0000.0001) %MON dynstat_eta_min              =  -1.3605018262075E-01
(PID.TID 0000.0001) %MON dynstat_eta_mean             =  -8.5997721507458E-18
(PID.TID 0000.0001) %MON dynstat_eta_sd               =   6.3437650516964E-02
(PID.TID 0000.0001) %MON dynstat_eta_del2             =   1.3786389239906E-03
(PID.TID 0000.0001) %MON dynstat_uvel_max             =   2.1567237456482E-02
(PID.TID 0000.0001) %MON dynstat_uvel_min             =  -2.6621874267786E-02
(PID.TID 0000.0001) %MON dynstat_uvel_mean            =  -1.1714094500082E-10
(PID.TID 0000.0001) %MON dynstat_uvel_sd              =   4.7698428187426E-03
(PID.TID 0000.0001) %MON dynstat_uvel_del2            =   2.8882573904824E-05
(PID.TID 0000.0001) %MON dynstat_vvel_max             =   1.7564945668653E-02
(PID.TID 0000.0001) %MON dynstat_vvel_min             =  -1.6232283597990E-02
(PID.TID 0000.0001) %MON dynstat_vvel_mean            =   2.8967782514202E-11
(PID.TID 0000.0001) %MON dynstat_vvel_sd              =   2.1315056715198E-03
(PID.TID 0000.0001) %MON dynstat_vvel_del2            =   3.4688348371423E-05
(PID.TID 0000.0001) %MON dynstat_wvel_max             =   2.0512528693511E-03
(PID.TID 0000.0001) %MON dynstat_wvel_min             =  -1.0850948760164E-03
(PID.TID 0000.0001) %MON dynstat_wvel_mean            =   2.8513420219840E-11
(PID.TID 0000.0001) %MON dynstat_wvel_sd              =   1.8065473284481E-04
(PID.TID 0000.0001) %MON dynstat_wvel_del2            =   4.8906167117854E-06
(PID.TID 0000.0001) %MON dynstat_theta_max            =  -2.0985262347283E+00
(PID.TID 0000.0001) %MON dynstat_theta_min            =  -2.1355219599335E+00
(PID.TID 0000.0001) %MON dynstat_theta_mean           =  -2.1027054868385E+00
(PID.TID 0000.0001) %MON dynstat_theta_sd             =   4.8817024567097E-03
(PID.TID 0000.0001) %MON dynstat_theta_del2           =   2.0196629532732E-05
(PID.TID 0000.0001) %MON dynstat_salt_max             =   3.4500023241561E+01
(PID.TID 0000.0001) %MON dynstat_salt_min             =   3.4489667098605E+01
(PID.TID 0000.0001) %MON dynstat_salt_mean            =   3.4498958089418E+01
(PID.TID 0000.0001) %MON dynstat_salt_sd              =   1.9686456813071E-03
(PID.TID 0000.0001) %MON dynstat_salt_del2            =   3.2989674499630E-06
(PID.TID 0000.0001) %MON trAdv_CFL_u_max              =   9.2330305641597E-03
(PID.TID 0000.0001) %MON trAdv_CFL_v_max              =   1.6686698385221E-02
(PID.TID 0000.0001) %MON trAdv_CFL_w_max              =   1.4918202686190E-02
(PID.TID 0000.0001) %MON advcfl_uvel_max              =   9.2330305641597E-03
(PID.TID 0000.0001) %MON advcfl_vvel_max              =   1.6686698385221E-02
(PID.TID 0000.0001) %MON advcfl_wvel_max              =   1.4918202686190E-02
(PID.TID 0000.0001) %MON advcfl_W_hf_max              =   1.6686697995438E-02
(PID.TID 0000.0001) %MON pe_b_mean                    =   9.2663112421111E-05
(PID.TID 0000.0001) %MON ke_max                       =   3.0849013298004E-04
(PID.TID 0000.0001) %MON ke_mean                      =   1.2933007966938E-05
(PID.TID 0000.0001) %MON ke_vol                       =   1.8654725220387E+09
(PID.TID 0000.0001) %MON vort_r_min                   =  -3.1613475692995E-04
(PID.TID 0000.0001) %MON vort_r_max                   =   2.4342533308042E-04
(PID.TID 0000.0001) %MON vort_a_mean                  =   1.0000782634673E-04
(PID.TID 0000.0001) %MON vort_a_sd                    =   4.5237091639634E-05
(PID.TID 0000.0001) %MON vort_p_mean                  =   1.1991916022492E-04
(PID.TID 0000.0001) %MON vort_p_sd                    =   1.0158681872001E-04
(PID.TID 0000.0001) %MON surfExpan_theta_mean         =  -5.5592613510384E-13
(PID.TID 0000.0001) %MON surfExpan_salt_mean          =  -2.5981510423550E-13
(PID.TID 0000.0001) // =======================================================
(PID.TID 0000.0001) // End MONITOR dynamic field statistics
(PID.TID 0000.0001) // =======================================================
(PID.TID 0000.0001) // =======================================================
(PID.TID 0000.0001) // Begin MONITOR dynamic field statistics
(PID.TID 0000.0001) // =======================================================
(PID.TID 0000.0001) %MON time_tsnumber                =                 19440
(PID.TID 0000.0001) %MON time_secondsf                =   1.5552000000000E+06
(PID.TID 0000.0001) %MON dynstat_eta_max              =   2.1269441117309E-01
(PID.TID 0000.0001) %MON dynstat_eta_min              =  -1.3598192274379E-01
(PID.TID 0000.0001) %MON dynstat_eta_mean             =   2.8296024496002E-17
(PID.TID 0000.0001) %MON dynstat_eta_sd               =   6.3411648214381E-02
(PID.TID 0000.0001) %MON dynstat_eta_del2             =   1.3781823313558E-03
(PID.TID 0000.0001) %MON dynstat_uvel_max             =   2.2329434902254E-02
(PID.TID 0000.0001) %MON dynstat_uvel_min             =  -2.4626857443689E-02
(PID.TID 0000.0001) %MON dynstat_uvel_mean            =  -9.8465787374484E-12
(PID.TID 0000.0001) %MON dynstat_uvel_sd              =   4.7719693983150E-03
(PID.TID 0000.0001) %MON dynstat_uvel_del2            =   2.8657078811978E-05
(PID.TID 0000.0001) %MON dynstat_vvel_max             =   1.7948563037116E-02
(PID.TID 0000.0001) %MON dynstat_vvel_min             =  -1.5845687496320E-02
(PID.TID 0000.0001) %MON dynstat_vvel_mean            =   3.0188057296731E-11
(PID.TID 0000.0001) %MON dynstat_vvel_sd              =   2.0588135978288E-03
(PID.TID 0000.0001) %MON dynstat_vvel_del2            =   3.0585568707466E-05
(PID.TID 0000.0001) %MON dynstat_wvel_max             =   1.9307734432826E-03
(PID.TID 0000.0001) %MON dynstat_wvel_min             =  -1.2150771970860E-03
(PID.TID 0000.0001) %MON dynstat_wvel_mean            =   2.6609192200361E-11
(PID.TID 0000.0001) %MON dynstat_wvel_sd              =   1.6380214855388E-04
(PID.TID 0000.0001) %MON dynstat_wvel_del2            =   4.9384662314612E-06
(PID.TID 0000.0001) %MON dynstat_theta_max            =  -2.0985490792208E+00
(PID.TID 0000.0001) %MON dynstat_theta_min            =  -2.1403477604122E+00
(PID.TID 0000.0001) %MON dynstat_theta_mean           =  -2.1032987797145E+00
(PID.TID 0000.0001) %MON dynstat_theta_sd             =   5.6561092599953E-03
(PID.TID 0000.0001) %MON dynstat_theta_del2           =   1.9992750601082E-05
(PID.TID 0000.0001) %MON dynstat_salt_max             =   3.4500050235697E+01
(PID.TID 0000.0001) %MON dynstat_salt_min             =   3.4488579543540E+01
(PID.TID 0000.0001) %MON dynstat_salt_mean            =   3.4498728209980E+01
(PID.TID 0000.0001) %MON dynstat_salt_sd              =   2.2834074088201E-03
(PID.TID 0000.0001) %MON dynstat_salt_del2            =   3.1627063126880E-06
(PID.TID 0000.0001) %MON trAdv_CFL_u_max              =   8.5411164213908E-03
(PID.TID 0000.0001) %MON trAdv_CFL_v_max              =   1.7051134885260E-02
(PID.TID 0000.0001) %MON trAdv_CFL_w_max              =   1.4041988678419E-02
(PID.TID 0000.0001) %MON advcfl_uvel_max              =   8.5411164213908E-03
(PID.TID 0000.0001) %MON advcfl_vvel_max              =   1.7051134885260E-02
(PID.TID 0000.0001) %MON advcfl_wvel_max              =   1.4041988678419E-02
(PID.TID 0000.0001) %MON advcfl_W_hf_max              =   1.6892707367618E-02
(PID.TID 0000.0001) %MON pe_b_mean                    =   9.2587983471201E-05
(PID.TID 0000.0001) %MON ke_max                       =   2.8376746800920E-04
(PID.TID 0000.0001) %MON ke_mean                      =   1.2806541468472E-05
(PID.TID 0000.0001) %MON ke_vol                       =   1.8654725220387E+09
(PID.TID 0000.0001) %MON vort_r_min                   =  -2.9244393214381E-04
(PID.TID 0000.0001) %MON vort_r_max                   =   2.9037413771376E-04
(PID.TID 0000.0001) %MON vort_a_mean                  =   1.0000782634673E-04
(PID.TID 0000.0001) %MON vort_a_sd                    =   4.4647357051849E-05
(PID.TID 0000.0001) %MON vort_p_mean                  =   1.1991916022492E-04
(PID.TID 0000.0001) %MON vort_p_sd                    =   9.8743585983380E-05
(PID.TID 0000.0001) %MON surfExpan_theta_mean         =  -5.7974702878585E-13
(PID.TID 0000.0001) %MON surfExpan_salt_mean          =  -2.6439027773895E-13
(PID.TID 0000.0001) // =======================================================
(PID.TID 0000.0001) // End MONITOR dynamic field statistics
(PID.TID 0000.0001) // =======================================================
(PID.TID 0000.0001) // =======================================================
(PID.TID 0000.0001) // Begin MONITOR dynamic field statistics
(PID.TID 0000.0001) // =======================================================
(PID.TID 0000.0001) %MON time_tsnumber                =                 22680
(PID.TID 0000.0001) %MON time_secondsf                =   1.8144000000000E+06
(PID.TID 0000.0001) %MON dynstat_eta_max              =   2.1266479414810E-01
(PID.TID 0000.0001) %MON dynstat_eta_min              =  -1.3591692254842E-01
(PID.TID 0000.0001) %MON dynstat_eta_mean             =   2.2747784398747E-17
(PID.TID 0000.0001) %MON dynstat_eta_sd               =   6.3385855485265E-02
(PID.TID 0000.0001) %MON dynstat_eta_del2             =   1.3778094139158E-03
(PID.TID 0000.0001) %MON dynstat_uvel_max             =   2.1319010285335E-02
(PID.TID 0000.0001) %MON dynstat_uvel_min             =  -2.3797749167079E-02
(PID.TID 0000.0001) %MON dynstat_uvel_mean            =  -1.0934373479358E-10
(PID.TID 0000.0001) %MON dynstat_uvel_sd              =   4.7858717886148E-03
(PID.TID 0000.0001) %MON dynstat_uvel_del2            =   2.7811442936230E-05
(PID.TID 0000.0001) %MON dynstat_vvel_max             =   1.7726625220447E-02
(PID.TID 0000.0001) %MON dynstat_vvel_min             =  -1.4134942676550E-02
(PID.TID 0000.0001) %MON dynstat_vvel_mean            =   4.2772354977368E-11
(PID.TID 0000.0001) %MON dynstat_vvel_sd              =   1.9929546526695E-03
(PID.TID 0000.0001) %MON dynstat_vvel_del2            =   3.0062059692306E-05
(PID.TID 0000.0001) %MON dynstat_wvel_max             =   1.8425214479140E-03
(PID.TID 0000.0001) %MON dynstat_wvel_min             =  -1.8838670422535E-03
(PID.TID 0000.0001) %MON dynstat_wvel_mean            =   2.8381801081999E-11
(PID.TID 0000.0001) %MON dynstat_wvel_sd              =   1.7607871474368E-04
(PID.TID 0000.0001) %MON dynstat_wvel_del2            =   5.3526694949300E-06
(PID.TID 0000.0001) %MON dynstat_theta_max            =  -2.0999642105148E+00
(PID.TID 0000.0001) %MON dynstat_theta_min            =  -2.1428885296228E+00
(PID.TID 0000.0001) %MON dynstat_theta_mean           =  -2.1039223339174E+00
(PID.TID 0000.0001) %MON dynstat_theta_sd             =   6.4292514838989E-03
(PID.TID 0000.0001) %MON dynstat_theta_del2           =   2.2498729102629E-05
(PID.TID 0000.0001) %MON dynstat_salt_max             =   3.4500031680055E+01
(PID.TID 0000.0001) %MON dynstat_salt_min             =   3.4486705490483E+01
(PID.TID 0000.0001) %MON dynstat_salt_mean            =   3.4498485866000E+01
(PID.TID 0000.0001) %MON dynstat_salt_sd              =   2.5945224607814E-03
(PID.TID 0000.0001) %MON dynstat_salt_del2            =   3.2578012213482E-06
(PID.TID 0000.0001) %MON trAdv_CFL_u_max              =   8.2535640882254E-03
(PID.TID 0000.0001) %MON trAdv_CFL_v_max              =   1.6840293959425E-02
(PID.TID 0000.0001) %MON trAdv_CFL_w_max              =   1.3700851216389E-02
(PID.TID 0000.0001) %MON advcfl_uvel_max              =   8.2535640882254E-03
(PID.TID 0000.0001) %MON advcfl_vvel_max              =   1.6840293959425E-02
(PID.TID 0000.0001) %MON advcfl_wvel_max              =   1.3700851216389E-02
(PID.TID 0000.0001) %MON advcfl_W_hf_max              =   1.6840294058923E-02
(PID.TID 0000.0001) %MON pe_b_mean                    =   9.2512865927877E-05
(PID.TID 0000.0001) %MON ke_max                       =   2.6707342345178E-04
(PID.TID 0000.0001) %MON ke_mean                      =   1.2750903632262E-05
(PID.TID 0000.0001) %MON ke_vol                       =   1.8654725220387E+09
(PID.TID 0000.0001) %MON vort_r_min                   =  -2.8259827135906E-04
(PID.TID 0000.0001) %MON vort_r_max                   =   2.6154628771290E-04
(PID.TID 0000.0001) %MON vort_a_mean                  =   1.0000782634673E-04
(PID.TID 0000.0001) %MON vort_a_sd                    =   4.5000050331441E-05
(PID.TID 0000.0001) %MON vort_p_mean                  =   1.1991916022492E-04
(PID.TID 0000.0001) %MON vort_p_sd                    =   9.7996486315223E-05
(PID.TID 0000.0001) %MON surfExpan_theta_mean         =  -6.2111494094247E-13
(PID.TID 0000.0001) %MON surfExpan_salt_mean          =  -2.8800231204493E-13
(PID.TID 0000.0001) // =======================================================
(PID.TID 0000.0001) // End MONITOR dynamic field statistics
(PID.TID 0000.0001) // =======================================================
(PID.TID 0000.0001) // =======================================================
(PID.TID 0000.0001) // Begin MONITOR dynamic field statistics
(PID.TID 0000.0001) // =======================================================
(PID.TID 0000.0001) %MON time_tsnumber                =                 25920
(PID.TID 0000.0001) %MON time_secondsf                =   2.0736000000000E+06
(PID.TID 0000.0001) %MON dynstat_eta_max              =   2.1262857576837E-01
(PID.TID 0000.0001) %MON dynstat_eta_min              =  -1.3585401060004E-01
(PID.TID 0000.0001) %MON dynstat_eta_mean             =   8.3223601458831E-18
(PID.TID 0000.0001) %MON dynstat_eta_sd               =   6.3359114368755E-02
(PID.TID 0000.0001) %MON dynstat_eta_del2             =   1.3773950188768E-03
(PID.TID 0000.0001) %MON dynstat_uvel_max             =   2.0219663402211E-02
(PID.TID 0000.0001) %MON dynstat_uvel_min             =  -2.3055606178098E-02
(PID.TID 0000.0001) %MON dynstat_uvel_mean            =  -1.1618671710220E-10
(PID.TID 0000.0001) %MON dynstat_uvel_sd              =   4.7268473169055E-03
(PID.TID 0000.0001) %MON dynstat_uvel_del2            =   2.3938929343541E-05
(PID.TID 0000.0001) %MON dynstat_vvel_max             =   1.6237175582599E-02
(PID.TID 0000.0001) %MON dynstat_vvel_min             =  -1.2635574606030E-02
(PID.TID 0000.0001) %MON dynstat_vvel_mean            =   4.2749077080377E-11
(PID.TID 0000.0001) %MON dynstat_vvel_sd              =   1.7379236210839E-03
(PID.TID 0000.0001) %MON dynstat_vvel_del2            =   2.6596957224079E-05
(PID.TID 0000.0001) %MON dynstat_wvel_max             =   1.7106539479184E-03
(PID.TID 0000.0001) %MON dynstat_wvel_min             =  -1.0689528340858E-03
(PID.TID 0000.0001) %MON dynstat_wvel_mean            =   2.7973531364249E-11
(PID.TID 0000.0001) %MON dynstat_wvel_sd              =   1.4805387644169E-04
(PID.TID 0000.0001) %MON dynstat_wvel_del2            =   4.4901754758203E-06
(PID.TID 0000.0001) %MON dynstat_theta_max            =  -2.0999391037531E+00
(PID.TID 0000.0001) %MON dynstat_theta_min            =  -2.1501070817799E+00
(PID.TID 0000.0001) %MON dynstat_theta_mean           =  -2.1045707975677E+00
(PID.TID 0000.0001) %MON dynstat_theta_sd             =   7.2001905871402E-03
(PID.TID 0000.0001) %MON dynstat_theta_del2           =   2.4905987799248E-05
(PID.TID 0000.0001) %MON dynstat_salt_max             =   3.4500027091619E+01
(PID.TID 0000.0001) %MON dynstat_salt_min             =   3.4484245488846E+01
(PID.TID 0000.0001) %MON dynstat_salt_mean            =   3.4498233261619E+01
(PID.TID 0000.0001) %MON dynstat_salt_sd              =   2.9090538951404E-03
(PID.TID 0000.0001) %MON dynstat_salt_del2            =   3.2283139027159E-06
(PID.TID 0000.0001) %MON trAdv_CFL_u_max              =   7.9961731610759E-03
(PID.TID 0000.0001) %MON trAdv_CFL_v_max              =   1.5425316803469E-02
(PID.TID 0000.0001) %MON trAdv_CFL_w_max              =   1.2441119621225E-02
(PID.TID 0000.0001) %MON advcfl_uvel_max              =   7.9961731610759E-03
(PID.TID 0000.0001) %MON advcfl_vvel_max              =   1.5425316803469E-02
(PID.TID 0000.0001) %MON advcfl_wvel_max              =   1.2441119621225E-02
(PID.TID 0000.0001) %MON advcfl_W_hf_max              =   1.5372769660833E-02
(PID.TID 0000.0001) %MON pe_b_mean                    =   9.2434082737719E-05
(PID.TID 0000.0001) %MON ke_max                       =   2.5624517926012E-04
(PID.TID 0000.0001) %MON ke_mean                      =   1.2056445110391E-05
(PID.TID 0000.0001) %MON ke_vol                       =   1.8654725220387E+09
(PID.TID 0000.0001) %MON vort_r_min                   =  -2.7378532336491E-04
(PID.TID 0000.0001) %MON vort_r_max                   =   1.9941601785339E-04
(PID.TID 0000.0001) %MON vort_a_mean                  =   1.0000782634673E-04
(PID.TID 0000.0001) %MON vort_a_sd                    =   4.4323555781518E-05
(PID.TID 0000.0001) %MON vort_p_mean                  =   1.1991916022492E-04
(PID.TID 0000.0001) %MON vort_p_sd                    =   9.6792328266564E-05
(PID.TID 0000.0001) %MON surfExpan_theta_mean         =  -5.8729362641297E-13
(PID.TID 0000.0001) %MON surfExpan_salt_mean          =  -2.8864837956659E-13
(PID.TID 0000.0001) // =======================================================
(PID.TID 0000.0001) // End MONITOR dynamic field statistics
(PID.TID 0000.0001) // =======================================================
(PID.TID 0000.0001) // =======================================================
(PID.TID 0000.0001) // Begin MONITOR dynamic field statistics
(PID.TID 0000.0001) // =======================================================
(PID.TID 0000.0001) %MON time_tsnumber                =                 29160
(PID.TID 0000.0001) %MON time_secondsf                =   2.3328000000000E+06
(PID.TID 0000.0001) %MON dynstat_eta_max              =   2.1259468212157E-01
(PID.TID 0000.0001) %MON dynstat_eta_min              =  -1.3580330962821E-01
(PID.TID 0000.0001) %MON dynstat_eta_mean             =   3.0792732539767E-17
(PID.TID 0000.0001) %MON dynstat_eta_sd               =   6.3334534458517E-02
(PID.TID 0000.0001) %MON dynstat_eta_del2             =   1.3769890538760E-03
(PID.TID 0000.0001) %MON dynstat_uvel_max             =   1.8039820570130E-02
(PID.TID 0000.0001) %MON dynstat_uvel_min             =  -2.0805247278537E-02
(PID.TID 0000.0001) %MON dynstat_uvel_mean            =  -8.1126861031332E-12
(PID.TID 0000.0001) %MON dynstat_uvel_sd              =   4.5677956256176E-03
(PID.TID 0000.0001) %MON dynstat_uvel_del2            =   2.1663395789570E-05
(PID.TID 0000.0001) %MON dynstat_vvel_max             =   1.3295473160831E-02
(PID.TID 0000.0001) %MON dynstat_vvel_min             =  -8.7770051754599E-03
(PID.TID 0000.0001) %MON dynstat_vvel_mean            =   4.2558996763599E-11
(PID.TID 0000.0001) %MON dynstat_vvel_sd              =   1.5217634631694E-03
(PID.TID 0000.0001) %MON dynstat_vvel_del2            =   2.4316058563164E-05
(PID.TID 0000.0001) %MON dynstat_wvel_max             =   1.6109940997006E-03
(PID.TID 0000.0001) %MON dynstat_wvel_min             =  -9.3508340674431E-04
(PID.TID 0000.0001) %MON dynstat_wvel_mean            =   2.4313453747970E-11
(PID.TID 0000.0001) %MON dynstat_wvel_sd              =   1.2949549147451E-04
(PID.TID 0000.0001) %MON dynstat_wvel_del2            =   3.9279180522188E-06
(PID.TID 0000.0001) %MON dynstat_theta_max            =  -2.0999369388399E+00
(PID.TID 0000.0001) %MON dynstat_theta_min            =  -2.1580617987660E+00
(PID.TID 0000.0001) %MON dynstat_theta_mean           =  -2.1051900133675E+00
(PID.TID 0000.0001) %MON dynstat_theta_sd             =   7.9429935763916E-03
(PID.TID 0000.0001) %MON dynstat_theta_del2           =   2.5986274817278E-05
(PID.TID 0000.0001) %MON dynstat_salt_max             =   3.4500000555235E+01
(PID.TID 0000.0001) %MON dynstat_salt_min             =   3.4481149415982E+01
(PID.TID 0000.0001) %MON dynstat_salt_mean            =   3.4497992710516E+01
(PID.TID 0000.0001) %MON dynstat_salt_sd              =   3.2058489808887E-03
(PID.TID 0000.0001) %MON dynstat_salt_del2            =   3.0949152066076E-06
(PID.TID 0000.0001) %MON trAdv_CFL_u_max              =   7.2157009715159E-03
(PID.TID 0000.0001) %MON trAdv_CFL_v_max              =   1.2630699502790E-02
(PID.TID 0000.0001) %MON trAdv_CFL_w_max              =   1.1716320725096E-02
(PID.TID 0000.0001) %MON advcfl_uvel_max              =   7.2157009715159E-03
(PID.TID 0000.0001) %MON advcfl_vvel_max              =   1.2630699502790E-02
(PID.TID 0000.0001) %MON advcfl_wvel_max              =   1.1716320725096E-02
(PID.TID 0000.0001) %MON advcfl_W_hf_max              =   1.2630699832780E-02
(PID.TID 0000.0001) %MON pe_b_mean                    =   9.2361208259172E-05
(PID.TID 0000.0001) %MON ke_max                       =   2.0994470412301E-04
(PID.TID 0000.0001) %MON ke_mean                      =   1.1033045626558E-05
(PID.TID 0000.0001) %MON ke_vol                       =   1.8654725220387E+09
(PID.TID 0000.0001) %MON vort_r_min                   =  -2.4706231143263E-04
(PID.TID 0000.0001) %MON vort_r_max                   =   1.6689565615844E-04
(PID.TID 0000.0001) %MON vort_a_mean                  =   1.0000782634673E-04
(PID.TID 0000.0001) %MON vort_a_sd                    =   4.2849437159206E-05
(PID.TID 0000.0001) %MON vort_p_mean                  =   1.1991916022492E-04
(PID.TID 0000.0001) %MON vort_p_sd                    =   9.5265467401190E-05
(PID.TID 0000.0001) %MON surfExpan_theta_mean         =  -5.7294124941375E-13
(PID.TID 0000.0001) %MON surfExpan_salt_mean          =  -2.6501148186506E-13
(PID.TID 0000.0001) // =======================================================
(PID.TID 0000.0001) // End MONITOR dynamic field statistics
(PID.TID 0000.0001) // =======================================================
(PID.TID 0000.0001) // =======================================================
(PID.TID 0000.0001) // Begin MONITOR dynamic field statistics
(PID.TID 0000.0001) // =======================================================
(PID.TID 0000.0001) %MON time_tsnumber                =                 32400
(PID.TID 0000.0001) %MON time_secondsf                =   2.5920000000000E+06
(PID.TID 0000.0001) %MON dynstat_eta_max              =   2.1256416016821E-01
(PID.TID 0000.0001) %MON dynstat_eta_min              =  -1.3575476553433E-01
(PID.TID 0000.0001) %MON dynstat_eta_mean             =   1.1928716209099E-17
(PID.TID 0000.0001) %MON dynstat_eta_sd               =   6.3312364550621E-02
(PID.TID 0000.0001) %MON dynstat_eta_del2             =   1.3766273023980E-03
(PID.TID 0000.0001) %MON dynstat_uvel_max             =   1.8156697209058E-02
(PID.TID 0000.0001) %MON dynstat_uvel_min             =  -2.0080607316287E-02
(PID.TID 0000.0001) %MON dynstat_uvel_mean            =  -3.7907603491511E-11
(PID.TID 0000.0001) %MON dynstat_uvel_sd              =   4.3922177386954E-03
(PID.TID 0000.0001) %MON dynstat_uvel_del2            =   2.0414217121426E-05
(PID.TID 0000.0001) %MON dynstat_vvel_max             =   1.0621741756976E-02
(PID.TID 0000.0001) %MON dynstat_vvel_min             =  -9.0134503536431E-03
(PID.TID 0000.0001) %MON dynstat_vvel_mean            =   3.1805573519672E-11
(PID.TID 0000.0001) %MON dynstat_vvel_sd              =   1.4116846860435E-03
(PID.TID 0000.0001) %MON dynstat_vvel_del2            =   2.1821286861637E-05
(PID.TID 0000.0001) %MON dynstat_wvel_max             =   1.5529186970625E-03
(PID.TID 0000.0001) %MON dynstat_wvel_min             =  -8.9433117345686E-04
(PID.TID 0000.0001) %MON dynstat_wvel_mean            =   2.2116923462532E-11
(PID.TID 0000.0001) %MON dynstat_wvel_sd              =   1.1424819648603E-04
(PID.TID 0000.0001) %MON dynstat_wvel_del2            =   3.2491877930393E-06
(PID.TID 0000.0001) %MON dynstat_theta_max            =  -2.0999331296632E+00
(PID.TID 0000.0001) %MON dynstat_theta_min            =  -2.1659990403243E+00
(PID.TID 0000.0001) %MON dynstat_theta_mean           =  -2.1057603022999E+00
(PID.TID 0000.0001) %MON dynstat_theta_sd             =   8.6149236755699E-03
(PID.TID 0000.0001) %MON dynstat_theta_del2           =   2.7540676763327E-05
(PID.TID 0000.0001) %MON dynstat_salt_max             =   3.4500026738797E+01
(PID.TID 0000.0001) %MON dynstat_salt_min             =   3.4478969637769E+01
(PID.TID 0000.0001) %MON dynstat_salt_mean            =   3.4497772319541E+01
(PID.TID 0000.0001) %MON dynstat_salt_sd              =   3.4768741506939E-03
(PID.TID 0000.0001) %MON dynstat_salt_del2            =   2.9949257504789E-06
(PID.TID 0000.0001) %MON trAdv_CFL_u_max              =   6.9643804652223E-03
(PID.TID 0000.0001) %MON trAdv_CFL_v_max              =   1.0090654669127E-02
(PID.TID 0000.0001) %MON trAdv_CFL_w_max              =   1.1293954160455E-02
(PID.TID 0000.0001) %MON advcfl_uvel_max              =   6.9643804652223E-03
(PID.TID 0000.0001) %MON advcfl_vvel_max              =   1.0090654669127E-02
(PID.TID 0000.0001) %MON advcfl_wvel_max              =   1.1293954160455E-02
(PID.TID 0000.0001) %MON advcfl_W_hf_max              =   1.1293954160455E-02
(PID.TID 0000.0001) %MON pe_b_mean                    =   9.2295537709641E-05
(PID.TID 0000.0001) %MON ke_max                       =   1.9641872035622E-04
(PID.TID 0000.0001) %MON ke_mean                      =   1.0134858323775E-05
(PID.TID 0000.0001) %MON ke_vol                       =   1.8654725220387E+09
(PID.TID 0000.0001) %MON vort_r_min                   =  -2.3845721188091E-04
(PID.TID 0000.0001) %MON vort_r_max                   =   1.4983609564153E-04
(PID.TID 0000.0001) %MON vort_a_mean                  =   1.0000782634673E-04
(PID.TID 0000.0001) %MON vort_a_sd                    =   4.1179595908166E-05
(PID.TID 0000.0001) %MON vort_p_mean                  =   1.1991916022492E-04
(PID.TID 0000.0001) %MON vort_p_sd                    =   9.3361767453351E-05
(PID.TID 0000.0001) %MON surfExpan_theta_mean         =  -5.3637755586944E-13
(PID.TID 0000.0001) %MON surfExpan_salt_mean          =  -2.4017935109216E-13
(PID.TID 0000.0001) // =======================================================
(PID.TID 0000.0001) // End MONITOR dynamic field statistics
(PID.TID 0000.0001) // =======================================================
(PID.TID 0000.0001) %CHECKPOINT     33480 0000033480
(PID.TID 0000.0001) // =======================================================
(PID.TID 0000.0001) // Begin MONITOR dynamic field statistics
(PID.TID 0000.0001) // =======================================================
(PID.TID 0000.0001) %MON time_tsnumber                =                 35640
(PID.TID 0000.0001) %MON time_secondsf                =   2.8512000000000E+06
(PID.TID 0000.0001) %MON dynstat_eta_max              =   2.1253532693783E-01
(PID.TID 0000.0001) %MON dynstat_eta_min              =  -1.3570934340323E-01
(PID.TID 0000.0001) %MON dynstat_eta_mean             =   1.6367308286903E-17
(PID.TID 0000.0001) %MON dynstat_eta_sd               =   6.3291706668311E-02
(PID.TID 0000.0001) %MON dynstat_eta_del2             =   1.3762876929774E-03
(PID.TID 0000.0001) %MON dynstat_uvel_max             =   1.7037034647493E-02
(PID.TID 0000.0001) %MON dynstat_uvel_min             =  -1.9044927687135E-02
(PID.TID 0000.0001) %MON dynstat_uvel_mean            =  -6.4211216808154E-11
(PID.TID 0000.0001) %MON dynstat_uvel_sd              =   4.2492904415885E-03
(PID.TID 0000.0001) %MON dynstat_uvel_del2            =   2.1465497156029E-05
(PID.TID 0000.0001) %MON dynstat_vvel_max             =   1.0497728712582E-02
(PID.TID 0000.0001) %MON dynstat_vvel_min             =  -9.3641032119600E-03
(PID.TID 0000.0001) %MON dynstat_vvel_mean            =   3.1055140009497E-11
(PID.TID 0000.0001) %MON dynstat_vvel_sd              =   1.3665813501943E-03
(PID.TID 0000.0001) %MON dynstat_vvel_del2            =   2.1801657083887E-05
(PID.TID 0000.0001) %MON dynstat_wvel_max             =   1.4482998397153E-03
(PID.TID 0000.0001) %MON dynstat_wvel_min             =  -1.2403185023586E-03
(PID.TID 0000.0001) %MON dynstat_wvel_mean            =   2.1723977692454E-11
(PID.TID 0000.0001) %MON dynstat_wvel_sd              =   1.2047833265368E-04
(PID.TID 0000.0001) %MON dynstat_wvel_del2            =   3.5961154803715E-06
(PID.TID 0000.0001) %MON dynstat_theta_max            =  -2.0974622191013E+00
(PID.TID 0000.0001) %MON dynstat_theta_min            =  -2.1723421257139E+00
(PID.TID 0000.0001) %MON dynstat_theta_mean           =  -2.1063037852377E+00
(PID.TID 0000.0001) %MON dynstat_theta_sd             =   9.2309844264282E-03
(PID.TID 0000.0001) %MON dynstat_theta_del2           =   3.0595067176858E-05
(PID.TID 0000.0001) %MON dynstat_salt_max             =   3.4500089733878E+01
(PID.TID 0000.0001) %MON dynstat_salt_min             =   3.4476867559619E+01
(PID.TID 0000.0001) %MON dynstat_salt_mean            =   3.4497562975056E+01
(PID.TID 0000.0001) %MON dynstat_salt_sd              =   3.7349354958424E-03
(PID.TID 0000.0001) %MON dynstat_salt_del2            =   3.1616448204894E-06
(PID.TID 0000.0001) %MON trAdv_CFL_u_max              =   6.6051848062519E-03
(PID.TID 0000.0001) %MON trAdv_CFL_v_max              =   9.9728422769533E-03
(PID.TID 0000.0001) %MON trAdv_CFL_w_max              =   1.0533089743384E-02
(PID.TID 0000.0001) %MON advcfl_uvel_max              =   6.6051848062519E-03
(PID.TID 0000.0001) %MON advcfl_vvel_max              =   9.9728422769533E-03
(PID.TID 0000.0001) %MON advcfl_wvel_max              =   1.0533089743384E-02
(PID.TID 0000.0001) %MON advcfl_W_hf_max              =   1.0533089743384E-02
(PID.TID 0000.0001) %MON pe_b_mean                    =   9.2234463888646E-05
(PID.TID 0000.0001) %MON ke_max                       =   1.7711067669778E-04
(PID.TID 0000.0001) %MON ke_mean                      =   9.4870120822939E-06
(PID.TID 0000.0001) %MON ke_vol                       =   1.8654725220387E+09
(PID.TID 0000.0001) %MON vort_r_min                   =  -2.3773626141652E-04
(PID.TID 0000.0001) %MON vort_r_max                   =   1.6337023893438E-04
(PID.TID 0000.0001) %MON vort_a_mean                  =   1.0000782634673E-04
(PID.TID 0000.0001) %MON vort_a_sd                    =   4.0140924956212E-05
(PID.TID 0000.0001) %MON vort_p_mean                  =   1.1991916022492E-04
(PID.TID 0000.0001) %MON vort_p_sd                    =   9.2180948503076E-05
(PID.TID 0000.0001) %MON surfExpan_theta_mean         =  -5.5208385003122E-13
(PID.TID 0000.0001) %MON surfExpan_salt_mean          =  -2.4277238496186E-13
(PID.TID 0000.0001) // =======================================================
(PID.TID 0000.0001) // End MONITOR dynamic field statistics
(PID.TID 0000.0001) // =======================================================
(PID.TID 0000.0001) // =======================================================
(PID.TID 0000.0001) // Begin MONITOR dynamic field statistics
(PID.TID 0000.0001) // =======================================================
(PID.TID 0000.0001) %MON time_tsnumber                =                 38880
(PID.TID 0000.0001) %MON time_secondsf                =   3.1104000000000E+06
(PID.TID 0000.0001) %MON dynstat_eta_max              =   2.1250724842276E-01
(PID.TID 0000.0001) %MON dynstat_eta_min              =  -1.3566541963618E-01
(PID.TID 0000.0001) %MON dynstat_eta_mean             =   7.2127121264320E-18
(PID.TID 0000.0001) %MON dynstat_eta_sd               =   6.3272173603256E-02
(PID.TID 0000.0001) %MON dynstat_eta_del2             =   1.3759472529066E-03
(PID.TID 0000.0001) %MON dynstat_uvel_max             =   1.6242210758093E-02
(PID.TID 0000.0001) %MON dynstat_uvel_min             =  -1.8720139279845E-02
(PID.TID 0000.0001) %MON dynstat_uvel_mean            =  -7.4821802725803E-11
(PID.TID 0000.0001) %MON dynstat_uvel_sd              =   4.0792201737000E-03
(PID.TID 0000.0001) %MON dynstat_uvel_del2            =   2.0440886055700E-05
(PID.TID 0000.0001) %MON dynstat_vvel_max             =   1.0197527598587E-02
(PID.TID 0000.0001) %MON dynstat_vvel_min             =  -8.3917663060954E-03
(PID.TID 0000.0001) %MON dynstat_vvel_mean            =   2.7414400174523E-11
(PID.TID 0000.0001) %MON dynstat_vvel_sd              =   1.2939328005060E-03
(PID.TID 0000.0001) %MON dynstat_vvel_del2            =   2.0274436664025E-05
(PID.TID 0000.0001) %MON dynstat_wvel_max             =   1.2697168574369E-03
(PID.TID 0000.0001) %MON dynstat_wvel_min             =  -8.4233018476584E-04
(PID.TID 0000.0001) %MON dynstat_wvel_mean            =   2.0095453386416E-11
(PID.TID 0000.0001) %MON dynstat_wvel_sd              =   1.0404967022374E-04
(PID.TID 0000.0001) %MON dynstat_wvel_del2            =   2.9679178974051E-06
(PID.TID 0000.0001) %MON dynstat_theta_max            =  -2.1000056025174E+00
(PID.TID 0000.0001) %MON dynstat_theta_min            =  -2.1784812324148E+00
(PID.TID 0000.0001) %MON dynstat_theta_mean           =  -2.1068210996225E+00
(PID.TID 0000.0001) %MON dynstat_theta_sd             =   9.8046953441246E-03
(PID.TID 0000.0001) %MON dynstat_theta_del2           =   2.7686424107849E-05
(PID.TID 0000.0001) %MON dynstat_salt_max             =   3.4499998709973E+01
(PID.TID 0000.0001) %MON dynstat_salt_min             =   3.4475084003731E+01
(PID.TID 0000.0001) %MON dynstat_salt_mean            =   3.4497364414158E+01
(PID.TID 0000.0001) %MON dynstat_salt_sd              =   3.9789358130042E-03
(PID.TID 0000.0001) %MON dynstat_salt_del2            =   2.8143509537292E-06
(PID.TID 0000.0001) %MON trAdv_CFL_u_max              =   6.4925412988405E-03
(PID.TID 0000.0001) %MON trAdv_CFL_v_max              =   9.6876512186581E-03
(PID.TID 0000.0001) %MON trAdv_CFL_w_max              =   9.2343044177232E-03
(PID.TID 0000.0001) %MON advcfl_uvel_max              =   6.4925412988405E-03
(PID.TID 0000.0001) %MON advcfl_vvel_max              =   9.6876512186581E-03
(PID.TID 0000.0001) %MON advcfl_wvel_max              =   9.2343044177232E-03
(PID.TID 0000.0001) %MON advcfl_W_hf_max              =   9.8361621691292E-03
(PID.TID 0000.0001) %MON pe_b_mean                    =   9.2176664374143E-05
(PID.TID 0000.0001) %MON ke_max                       =   1.6496937102480E-04
(PID.TID 0000.0001) %MON ke_mean                      =   8.7218902274597E-06
(PID.TID 0000.0001) %MON ke_vol                       =   1.8654725220387E+09
(PID.TID 0000.0001) %MON vort_r_min                   =  -2.4354249033087E-04
(PID.TID 0000.0001) %MON vort_r_max                   =   1.7543111786865E-04
(PID.TID 0000.0001) %MON vort_a_mean                  =   1.0000782634673E-04
(PID.TID 0000.0001) %MON vort_a_sd                    =   3.8418909205776E-05
(PID.TID 0000.0001) %MON vort_p_mean                  =   1.1991916022492E-04
(PID.TID 0000.0001) %MON vort_p_sd                    =   9.0599181629077E-05
(PID.TID 0000.0001) %MON surfExpan_theta_mean         =  -5.0171845257147E-13
(PID.TID 0000.0001) %MON surfExpan_salt_mean          =  -2.2704480287705E-13
(PID.TID 0000.0001) // =======================================================
(PID.TID 0000.0001) // End MONITOR dynamic field statistics
(PID.TID 0000.0001) // =======================================================
(PID.TID 0000.0001) // =======================================================
(PID.TID 0000.0001) // Begin MONITOR dynamic field statistics
(PID.TID 0000.0001) // =======================================================
(PID.TID 0000.0001) %MON time_tsnumber                =                 42120
(PID.TID 0000.0001) %MON time_secondsf                =   3.3696000000000E+06
(PID.TID 0000.0001) %MON dynstat_eta_max              =   2.1248236685943E-01
(PID.TID 0000.0001) %MON dynstat_eta_min              =  -1.3562148839441E-01
(PID.TID 0000.0001) %MON dynstat_eta_mean             =   1.9696252345257E-17
(PID.TID 0000.0001) %MON dynstat_eta_sd               =   6.3254108486608E-02
(PID.TID 0000.0001) %MON dynstat_eta_del2             =   1.3756304749681E-03
(PID.TID 0000.0001) %MON dynstat_uvel_max             =   1.6153530782431E-02
(PID.TID 0000.0001) %MON dynstat_uvel_min             =  -1.8282793467254E-02
(PID.TID 0000.0001) %MON dynstat_uvel_mean            =  -7.1137784768700E-11
(PID.TID 0000.0001) %MON dynstat_uvel_sd              =   3.9548762360715E-03
(PID.TID 0000.0001) %MON dynstat_uvel_del2            =   1.9880156141281E-05
(PID.TID 0000.0001) %MON dynstat_vvel_max             =   1.0299837199932E-02
(PID.TID 0000.0001) %MON dynstat_vvel_min             =  -8.7987359285514E-03
(PID.TID 0000.0001) %MON dynstat_vvel_mean            =   2.5396996970496E-11
(PID.TID 0000.0001) %MON dynstat_vvel_sd              =   1.3766577397130E-03
(PID.TID 0000.0001) %MON dynstat_vvel_del2            =   2.1767826378805E-05
(PID.TID 0000.0001) %MON dynstat_wvel_max             =   8.5093250413618E-04
(PID.TID 0000.0001) %MON dynstat_wvel_min             =  -8.8141422199096E-04
(PID.TID 0000.0001) %MON dynstat_wvel_mean            =   1.8911591511021E-11
(PID.TID 0000.0001) %MON dynstat_wvel_sd              =   9.5205547278194E-05
(PID.TID 0000.0001) %MON dynstat_wvel_del2            =   2.7109860122575E-06
(PID.TID 0000.0001) %MON dynstat_theta_max            =  -2.1000042822422E+00
(PID.TID 0000.0001) %MON dynstat_theta_min            =  -2.1834753302274E+00
(PID.TID 0000.0001) %MON dynstat_theta_mean           =  -2.1073101719298E+00
(PID.TID 0000.0001) %MON dynstat_theta_sd             =   1.0318173277620E-02
(PID.TID 0000.0001) %MON dynstat_theta_del2           =   3.2226756041183E-05
(PID.TID 0000.0001) %MON dynstat_salt_max             =   3.4499998560138E+01
(PID.TID 0000.0001) %MON dynstat_salt_min             =   3.4473667689171E+01
(PID.TID 0000.0001) %MON dynstat_salt_mean            =   3.4497177490322E+01
(PID.TID 0000.0001) %MON dynstat_salt_sd              =   4.2080592941138E-03
(PID.TID 0000.0001) %MON dynstat_salt_del2            =   3.0358354864074E-06
(PID.TID 0000.0001) %MON trAdv_CFL_u_max              =   6.3408604962742E-03
(PID.TID 0000.0001) %MON trAdv_CFL_v_max              =   9.7848453399357E-03
(PID.TID 0000.0001) %MON trAdv_CFL_w_max              =   6.4102852508434E-03
(PID.TID 0000.0001) %MON advcfl_uvel_max              =   6.3408604962742E-03
(PID.TID 0000.0001) %MON advcfl_vvel_max              =   9.7848453399357E-03
(PID.TID 0000.0001) %MON advcfl_wvel_max              =   6.4102852508434E-03
(PID.TID 0000.0001) %MON advcfl_W_hf_max              =   9.8310594570395E-03
(PID.TID 0000.0001) %MON pe_b_mean                    =   9.2123048417211E-05
(PID.TID 0000.0001) %MON ke_max                       =   1.5553869959589E-04
(PID.TID 0000.0001) %MON ke_mean                      =   8.3419851946940E-06
(PID.TID 0000.0001) %MON ke_vol                       =   1.8654725220387E+09
(PID.TID 0000.0001) %MON vort_r_min                   =  -2.3801019125068E-04
(PID.TID 0000.0001) %MON vort_r_max                   =   1.6569193327238E-04
(PID.TID 0000.0001) %MON vort_a_mean                  =   1.0000782634673E-04
(PID.TID 0000.0001) %MON vort_a_sd                    =   3.7015058095570E-05
(PID.TID 0000.0001) %MON vort_p_mean                  =   1.1991916022492E-04
(PID.TID 0000.0001) %MON vort_p_sd                    =   8.9237318644221E-05
(PID.TID 0000.0001) %MON surfExpan_theta_mean         =  -5.1146243847390E-13
(PID.TID 0000.0001) %MON surfExpan_salt_mean          =  -2.1966198798944E-13
(PID.TID 0000.0001) // =======================================================
(PID.TID 0000.0001) // End MONITOR dynamic field statistics
(PID.TID 0000.0001) // =======================================================
(PID.TID 0000.0001) // =======================================================
(PID.TID 0000.0001) // Begin MONITOR dynamic field statistics
(PID.TID 0000.0001) // =======================================================
(PID.TID 0000.0001) %MON time_tsnumber                =                 45360
(PID.TID 0000.0001) %MON time_secondsf                =   3.6288000000000E+06
(PID.TID 0000.0001) %MON dynstat_eta_max              =   2.1245931101987E-01
(PID.TID 0000.0001) %MON dynstat_eta_min              =  -1.3558306270004E-01
(PID.TID 0000.0001) %MON dynstat_eta_mean             =   4.2998860753729E-17
(PID.TID 0000.0001) %MON dynstat_eta_sd               =   6.3236452422389E-02
(PID.TID 0000.0001) %MON dynstat_eta_del2             =   1.3753159158637E-03
(PID.TID 0000.0001) %MON dynstat_uvel_max             =   1.5884727205604E-02
(PID.TID 0000.0001) %MON dynstat_uvel_min             =  -1.7304910366782E-02
(PID.TID 0000.0001) %MON dynstat_uvel_mean            =  -5.6991066165673E-11
(PID.TID 0000.0001) %MON dynstat_uvel_sd              =   3.8330310248453E-03
(PID.TID 0000.0001) %MON dynstat_uvel_del2            =   2.0482165272322E-05
(PID.TID 0000.0001) %MON dynstat_vvel_max             =   1.0674895600004E-02
(PID.TID 0000.0001) %MON dynstat_vvel_min             =  -8.8136013854607E-03
(PID.TID 0000.0001) %MON dynstat_vvel_mean            =   1.8837737191488E-11
(PID.TID 0000.0001) %MON dynstat_vvel_sd              =   1.3917444893368E-03
(PID.TID 0000.0001) %MON dynstat_vvel_del2            =   2.1535619818096E-05
(PID.TID 0000.0001) %MON dynstat_wvel_max             =   9.0987017378041E-04
(PID.TID 0000.0001) %MON dynstat_wvel_min             =  -8.9716980822698E-04
(PID.TID 0000.0001) %MON dynstat_wvel_mean            =   1.8471659289653E-11
(PID.TID 0000.0001) %MON dynstat_wvel_sd              =   9.7992763222965E-05
(PID.TID 0000.0001) %MON dynstat_wvel_del2            =   3.0326807163740E-06
(PID.TID 0000.0001) %MON dynstat_theta_max            =  -2.1000000969548E+00
(PID.TID 0000.0001) %MON dynstat_theta_min            =  -2.1860082386766E+00
(PID.TID 0000.0001) %MON dynstat_theta_mean           =  -2.1077661192167E+00
(PID.TID 0000.0001) %MON dynstat_theta_sd             =   1.0795026370429E-02
(PID.TID 0000.0001) %MON dynstat_theta_del2           =   3.0619898752495E-05
(PID.TID 0000.0001) %MON dynstat_salt_max             =   3.4499997867417E+01
(PID.TID 0000.0001) %MON dynstat_salt_min             =   3.4473190113454E+01
(PID.TID 0000.0001) %MON dynstat_salt_mean            =   3.4497004213754E+01
(PID.TID 0000.0001) %MON dynstat_salt_sd              =   4.4244149911321E-03
(PID.TID 0000.0001) %MON dynstat_salt_del2            =   3.0476966974400E-06
(PID.TID 0000.0001) %MON trAdv_CFL_u_max              =   6.0017098991367E-03
(PID.TID 0000.0001) %MON trAdv_CFL_v_max              =   1.0141150820004E-02
(PID.TID 0000.0001) %MON trAdv_CFL_w_max              =   6.6172376274939E-03
(PID.TID 0000.0001) %MON advcfl_uvel_max              =   6.0017098991367E-03
(PID.TID 0000.0001) %MON advcfl_vvel_max              =   1.0141150820004E-02
(PID.TID 0000.0001) %MON advcfl_wvel_max              =   6.6172376274939E-03
(PID.TID 0000.0001) %MON advcfl_W_hf_max              =   9.0166743640069E-03
(PID.TID 0000.0001) %MON pe_b_mean                    =   9.2070869150688E-05
(PID.TID 0000.0001) %MON ke_max                       =   1.3105747484455E-04
(PID.TID 0000.0001) %MON ke_mean                      =   7.9059703937879E-06
(PID.TID 0000.0001) %MON ke_vol                       =   1.8654725220387E+09
(PID.TID 0000.0001) %MON vort_r_min                   =  -2.2851434434829E-04
(PID.TID 0000.0001) %MON vort_r_max                   =   1.9239563230021E-04
(PID.TID 0000.0001) %MON vort_a_mean                  =   1.0000782634673E-04
(PID.TID 0000.0001) %MON vort_a_sd                    =   3.5738110756557E-05
(PID.TID 0000.0001) %MON vort_p_mean                  =   1.1991916022492E-04
(PID.TID 0000.0001) %MON vort_p_sd                    =   8.9072956448796E-05
(PID.TID 0000.0001) %MON surfExpan_theta_mean         =  -4.9217512780898E-13
(PID.TID 0000.0001) %MON surfExpan_salt_mean          =  -2.1162534929530E-13
(PID.TID 0000.0001) // =======================================================
(PID.TID 0000.0001) // End MONITOR dynamic field statistics
(PID.TID 0000.0001) // =======================================================
(PID.TID 0000.0001) // =======================================================
(PID.TID 0000.0001) // Begin MONITOR dynamic field statistics
(PID.TID 0000.0001) // =======================================================
(PID.TID 0000.0001) %MON time_tsnumber                =                 48600
(PID.TID 0000.0001) %MON time_secondsf                =   3.8880000000000E+06
(PID.TID 0000.0001) %MON dynstat_eta_max              =   2.1243710077101E-01
(PID.TID 0000.0001) %MON dynstat_eta_min              =  -1.3553973189448E-01
(PID.TID 0000.0001) %MON dynstat_eta_mean             =   4.7714864836396E-17
(PID.TID 0000.0001) %MON dynstat_eta_sd               =   6.3219645621150E-02
(PID.TID 0000.0001) %MON dynstat_eta_del2             =   1.3750135603207E-03
(PID.TID 0000.0001) %MON dynstat_uvel_max             =   1.6041793345957E-02
(PID.TID 0000.0001) %MON dynstat_uvel_min             =  -1.8692156519341E-02
(PID.TID 0000.0001) %MON dynstat_uvel_mean            =  -1.3279873867537E-10
(PID.TID 0000.0001) %MON dynstat_uvel_sd              =   3.7029740419955E-03
(PID.TID 0000.0001) %MON dynstat_uvel_del2            =   2.0151771654918E-05
(PID.TID 0000.0001) %MON dynstat_vvel_max             =   1.1730009092662E-02
(PID.TID 0000.0001) %MON dynstat_vvel_min             =  -1.0292421604247E-02
(PID.TID 0000.0001) %MON dynstat_vvel_mean            =   2.1332979864898E-11
(PID.TID 0000.0001) %MON dynstat_vvel_sd              =   1.4040124202139E-03
(PID.TID 0000.0001) %MON dynstat_vvel_del2            =   2.1993941541454E-05
(PID.TID 0000.0001) %MON dynstat_wvel_max             =   1.3796252018590E-03
(PID.TID 0000.0001) %MON dynstat_wvel_min             =  -9.6249273290210E-04
(PID.TID 0000.0001) %MON dynstat_wvel_mean            =   1.8629204606568E-11
(PID.TID 0000.0001) %MON dynstat_wvel_sd              =   1.0830971661893E-04
(PID.TID 0000.0001) %MON dynstat_wvel_del2            =   3.2880143199335E-06
(PID.TID 0000.0001) %MON dynstat_theta_max            =  -2.1000085047648E+00
(PID.TID 0000.0001) %MON dynstat_theta_min            =  -2.1863729388812E+00
(PID.TID 0000.0001) %MON dynstat_theta_mean           =  -2.1082008229578E+00
(PID.TID 0000.0001) %MON dynstat_theta_sd             =   1.1265807961327E-02
(PID.TID 0000.0001) %MON dynstat_theta_del2           =   2.5974378241259E-05
(PID.TID 0000.0001) %MON dynstat_salt_max             =   3.4500002024165E+01
(PID.TID 0000.0001) %MON dynstat_salt_min             =   3.4472671358189E+01
(PID.TID 0000.0001) %MON dynstat_salt_mean            =   3.4496839689238E+01
(PID.TID 0000.0001) %MON dynstat_salt_sd              =   4.6314720105905E-03
(PID.TID 0000.0001) %MON dynstat_salt_del2            =   2.9962249453158E-06
(PID.TID 0000.0001) %MON trAdv_CFL_u_max              =   6.4828362840694E-03
(PID.TID 0000.0001) %MON trAdv_CFL_v_max              =   1.1143508638029E-02
(PID.TID 0000.0001) %MON trAdv_CFL_w_max              =   1.0033637831702E-02
(PID.TID 0000.0001) %MON advcfl_uvel_max              =   6.4828362840694E-03
(PID.TID 0000.0001) %MON advcfl_vvel_max              =   1.1143508638029E-02
(PID.TID 0000.0001) %MON advcfl_wvel_max              =   1.0033637831702E-02
(PID.TID 0000.0001) %MON advcfl_W_hf_max              =   1.0033637831702E-02
(PID.TID 0000.0001) %MON pe_b_mean                    =   9.2021732910061E-05
(PID.TID 0000.0001) %MON ke_max                       =   1.6017101808703E-04
(PID.TID 0000.0001) %MON ke_mean                      =   7.4516710281329E-06
(PID.TID 0000.0001) %MON ke_vol                       =   1.8654725220387E+09
(PID.TID 0000.0001) %MON vort_r_min                   =  -2.2196935866718E-04
(PID.TID 0000.0001) %MON vort_r_max                   =   1.9137552117387E-04
(PID.TID 0000.0001) %MON vort_a_mean                  =   1.0000782634673E-04
(PID.TID 0000.0001) %MON vort_a_sd                    =   3.4668865387347E-05
(PID.TID 0000.0001) %MON vort_p_mean                  =   1.1991916022492E-04
(PID.TID 0000.0001) %MON vort_p_sd                    =   9.0094634143759E-05
(PID.TID 0000.0001) %MON surfExpan_theta_mean         =  -4.9408789492743E-13
(PID.TID 0000.0001) %MON surfExpan_salt_mean          =  -2.1280784643938E-13
(PID.TID 0000.0001) // =======================================================
(PID.TID 0000.0001) // End MONITOR dynamic field statistics
(PID.TID 0000.0001) // =======================================================
(PID.TID 0000.0001) // =======================================================
(PID.TID 0000.0001) // Begin MONITOR dynamic field statistics
(PID.TID 0000.0001) // =======================================================
(PID.TID 0000.0001) %MON time_tsnumber                =                 51840
(PID.TID 0000.0001) %MON time_secondsf                =   4.1472000000000E+06
(PID.TID 0000.0001) %MON dynstat_eta_max              =   2.1241529124050E-01
(PID.TID 0000.0001) %MON dynstat_eta_min              =  -1.3549703525111E-01
(PID.TID 0000.0001) %MON dynstat_eta_mean             =   3.6895796646748E-17
(PID.TID 0000.0001) %MON dynstat_eta_sd               =   6.3202398387236E-02
(PID.TID 0000.0001) %MON dynstat_eta_del2             =   1.3747240665294E-03
(PID.TID 0000.0001) %MON dynstat_uvel_max             =   1.6313434515325E-02
(PID.TID 0000.0001) %MON dynstat_uvel_min             =  -2.0258135228617E-02
(PID.TID 0000.0001) %MON dynstat_uvel_mean            =  -1.0792745230355E-10
(PID.TID 0000.0001) %MON dynstat_uvel_sd              =   3.6443725464140E-03
(PID.TID 0000.0001) %MON dynstat_uvel_del2            =   2.0828316065970E-05
(PID.TID 0000.0001) %MON dynstat_vvel_max             =   1.2818217634620E-02
(PID.TID 0000.0001) %MON dynstat_vvel_min             =  -1.1965054558267E-02
(PID.TID 0000.0001) %MON dynstat_vvel_mean            =   1.9000704123036E-11
(PID.TID 0000.0001) %MON dynstat_vvel_sd              =   1.4037655990070E-03
(PID.TID 0000.0001) %MON dynstat_vvel_del2            =   2.1530035224484E-05
(PID.TID 0000.0001) %MON dynstat_wvel_max             =   1.5389439830110E-03
(PID.TID 0000.0001) %MON dynstat_wvel_min             =  -1.2365204467167E-03
(PID.TID 0000.0001) %MON dynstat_wvel_mean            =   1.8547132067995E-11
(PID.TID 0000.0001) %MON dynstat_wvel_sd              =   1.2255517500514E-04
(PID.TID 0000.0001) %MON dynstat_wvel_del2            =   3.6481870285843E-06
(PID.TID 0000.0001) %MON dynstat_theta_max            =  -2.0998873695931E+00
(PID.TID 0000.0001) %MON dynstat_theta_min            =  -2.1854401098019E+00
(PID.TID 0000.0001) %MON dynstat_theta_mean           =  -2.1086276040286E+00
(PID.TID 0000.0001) %MON dynstat_theta_sd             =   1.1780246602219E-02
(PID.TID 0000.0001) %MON dynstat_theta_del2           =   2.8799123807550E-05
(PID.TID 0000.0001) %MON dynstat_salt_max             =   3.4499997437587E+01
(PID.TID 0000.0001) %MON dynstat_salt_min             =   3.4471783949020E+01
(PID.TID 0000.0001) %MON dynstat_salt_mean            =   3.4496678428686E+01
(PID.TID 0000.0001) %MON dynstat_salt_sd              =   4.8362869696947E-03
(PID.TID 0000.0001) %MON dynstat_salt_del2            =   3.1715405034574E-06
(PID.TID 0000.0001) %MON trAdv_CFL_u_max              =   7.0259509100394E-03
(PID.TID 0000.0001) %MON trAdv_CFL_v_max              =   1.2177306752889E-02
(PID.TID 0000.0001) %MON trAdv_CFL_w_max              =   1.1192319876443E-02
(PID.TID 0000.0001) %MON advcfl_uvel_max              =   7.0259509100394E-03
(PID.TID 0000.0001) %MON advcfl_vvel_max              =   1.2177306752889E-02
(PID.TID 0000.0001) %MON advcfl_wvel_max              =   1.1192319876443E-02
(PID.TID 0000.0001) %MON advcfl_W_hf_max              =   1.1192319876443E-02
(PID.TID 0000.0001) %MON pe_b_mean                    =   9.1971600171753E-05
(PID.TID 0000.0001) %MON ke_max                       =   1.9003133181133E-04
(PID.TID 0000.0001) %MON ke_mean                      =   7.2450493538457E-06
(PID.TID 0000.0001) %MON ke_vol                       =   1.8654725220387E+09
(PID.TID 0000.0001) %MON vort_r_min                   =  -2.4056535583983E-04
(PID.TID 0000.0001) %MON vort_r_max                   =   2.0691182796398E-04
(PID.TID 0000.0001) %MON vort_a_mean                  =   1.0000782634673E-04
(PID.TID 0000.0001) %MON vort_a_sd                    =   3.4430753728960E-05
(PID.TID 0000.0001) %MON vort_p_mean                  =   1.1991916022492E-04
(PID.TID 0000.0001) %MON vort_p_sd                    =   9.0596492820658E-05
(PID.TID 0000.0001) %MON surfExpan_theta_mean         =  -5.2047675967517E-13
(PID.TID 0000.0001) %MON surfExpan_salt_mean          =  -2.1788588403339E-13
(PID.TID 0000.0001) // =======================================================
(PID.TID 0000.0001) // End MONITOR dynamic field statistics
(PID.TID 0000.0001) // =======================================================
(PID.TID 0000.0001) // =======================================================
(PID.TID 0000.0001) // Begin MONITOR dynamic field statistics
(PID.TID 0000.0001) // =======================================================
(PID.TID 0000.0001) %MON time_tsnumber                =                 55080
(PID.TID 0000.0001) %MON time_secondsf                =   4.4064000000000E+06
(PID.TID 0000.0001) %MON dynstat_eta_max              =   2.1239219252771E-01
(PID.TID 0000.0001) %MON dynstat_eta_min              =  -1.3544994449004E-01
(PID.TID 0000.0001) %MON dynstat_eta_mean             =   3.3844264593258E-17
(PID.TID 0000.0001) %MON dynstat_eta_sd               =   6.3184752736061E-02
(PID.TID 0000.0001) %MON dynstat_eta_del2             =   1.3744138821925E-03
(PID.TID 0000.0001) %MON dynstat_uvel_max             =   1.6342377998318E-02
(PID.TID 0000.0001) %MON dynstat_uvel_min             =  -2.0846809198906E-02
(PID.TID 0000.0001) %MON dynstat_uvel_mean            =  -7.3419682228086E-11
(PID.TID 0000.0001) %MON dynstat_uvel_sd              =   3.5996956357297E-03
(PID.TID 0000.0001) %MON dynstat_uvel_del2            =   2.2110684739302E-05
(PID.TID 0000.0001) %MON dynstat_vvel_max             =   1.3481194143454E-02
(PID.TID 0000.0001) %MON dynstat_vvel_min             =  -1.2030488140045E-02
(PID.TID 0000.0001) %MON dynstat_vvel_mean            =   2.3049960117761E-11
(PID.TID 0000.0001) %MON dynstat_vvel_sd              =   1.4108294927438E-03
(PID.TID 0000.0001) %MON dynstat_vvel_del2            =   2.1111014174942E-05
(PID.TID 0000.0001) %MON dynstat_wvel_max             =   1.3228990208745E-03
(PID.TID 0000.0001) %MON dynstat_wvel_min             =  -1.7464234747670E-03
(PID.TID 0000.0001) %MON dynstat_wvel_mean            =   1.8478410759164E-11
(PID.TID 0000.0001) %MON dynstat_wvel_sd              =   1.2053485759467E-04
(PID.TID 0000.0001) %MON dynstat_wvel_del2            =   3.6858256280412E-06
(PID.TID 0000.0001) %MON dynstat_theta_max            =  -2.0997294568555E+00
(PID.TID 0000.0001) %MON dynstat_theta_min            =  -2.1854741504137E+00
(PID.TID 0000.0001) %MON dynstat_theta_mean           =  -2.1090522905757E+00
(PID.TID 0000.0001) %MON dynstat_theta_sd             =   1.2288173675351E-02
(PID.TID 0000.0001) %MON dynstat_theta_del2           =   3.7384395329478E-05
(PID.TID 0000.0001) %MON dynstat_salt_max             =   3.4499997105376E+01
(PID.TID 0000.0001) %MON dynstat_salt_min             =   3.4470166147773E+01
(PID.TID 0000.0001) %MON dynstat_salt_mean            =   3.4496518030869E+01
(PID.TID 0000.0001) %MON dynstat_salt_sd              =   5.0387729143689E-03
(PID.TID 0000.0001) %MON dynstat_salt_del2            =   3.3627400640878E-06
(PID.TID 0000.0001) %MON trAdv_CFL_u_max              =   7.2301155269002E-03
(PID.TID 0000.0001) %MON trAdv_CFL_v_max              =   1.2807134436282E-02
(PID.TID 0000.0001) %MON trAdv_CFL_w_max              =   1.2701261634669E-02
(PID.TID 0000.0001) %MON advcfl_uvel_max              =   7.2301155269002E-03
(PID.TID 0000.0001) %MON advcfl_vvel_max              =   1.2807134436282E-02
(PID.TID 0000.0001) %MON advcfl_wvel_max              =   1.2701261634669E-02
(PID.TID 0000.0001) %MON advcfl_W_hf_max              =   1.2701261634669E-02
(PID.TID 0000.0001) %MON pe_b_mean                    =   9.1920698260948E-05
(PID.TID 0000.0001) %MON ke_max                       =   2.0538203747514E-04
(PID.TID 0000.0001) %MON ke_mean                      =   7.0988605610353E-06
(PID.TID 0000.0001) %MON ke_vol                       =   1.8654725220387E+09
(PID.TID 0000.0001) %MON vort_r_min                   =  -2.4755585923701E-04
(PID.TID 0000.0001) %MON vort_r_max                   =   2.0692174839459E-04
(PID.TID 0000.0001) %MON vort_a_mean                  =   1.0000782634673E-04
(PID.TID 0000.0001) %MON vort_a_sd                    =   3.4330145571689E-05
(PID.TID 0000.0001) %MON vort_p_mean                  =   1.1991916022492E-04
(PID.TID 0000.0001) %MON vort_p_sd                    =   9.1603504722515E-05
(PID.TID 0000.0001) %MON surfExpan_theta_mean         =  -5.6799122751341E-13
(PID.TID 0000.0001) %MON surfExpan_salt_mean          =  -2.3224161832501E-13
(PID.TID 0000.0001) // =======================================================
(PID.TID 0000.0001) // End MONITOR dynamic field statistics
(PID.TID 0000.0001) // =======================================================
(PID.TID 0000.0001) // =======================================================
(PID.TID 0000.0001) // Begin MONITOR dynamic field statistics
(PID.TID 0000.0001) // =======================================================
(PID.TID 0000.0001) %MON time_tsnumber                =                 58320
(PID.TID 0000.0001) %MON time_secondsf                =   4.6656000000000E+06
(PID.TID 0000.0001) %MON dynstat_eta_max              =   2.1237266451889E-01
(PID.TID 0000.0001) %MON dynstat_eta_min              =  -1.3540410662573E-01
(PID.TID 0000.0001) %MON dynstat_eta_mean             =   5.9088757035770E-17
(PID.TID 0000.0001) %MON dynstat_eta_sd               =   6.3167828067956E-02
(PID.TID 0000.0001) %MON dynstat_eta_del2             =   1.3741194059017E-03
(PID.TID 0000.0001) %MON dynstat_uvel_max             =   1.5824271965088E-02
(PID.TID 0000.0001) %MON dynstat_uvel_min             =  -2.0710877652479E-02
(PID.TID 0000.0001) %MON dynstat_uvel_mean            =  -1.2135600225531E-10
(PID.TID 0000.0001) %MON dynstat_uvel_sd              =   3.4557799470703E-03
(PID.TID 0000.0001) %MON dynstat_uvel_del2            =   2.1223453205226E-05
(PID.TID 0000.0001) %MON dynstat_vvel_max             =   1.4582901419477E-02
(PID.TID 0000.0001) %MON dynstat_vvel_min             =  -1.3497811253179E-02
(PID.TID 0000.0001) %MON dynstat_vvel_mean            =   1.4725113475442E-11
(PID.TID 0000.0001) %MON dynstat_vvel_sd              =   1.4483346354107E-03
(PID.TID 0000.0001) %MON dynstat_vvel_del2            =   2.1237679438414E-05
(PID.TID 0000.0001) %MON dynstat_wvel_max             =   1.3524244559227E-03
(PID.TID 0000.0001) %MON dynstat_wvel_min             =  -1.0129643172701E-03
(PID.TID 0000.0001) %MON dynstat_wvel_mean            =   1.6997170900994E-11
(PID.TID 0000.0001) %MON dynstat_wvel_sd              =   1.0255037724421E-04
(PID.TID 0000.0001) %MON dynstat_wvel_del2            =   2.9818747682605E-06
(PID.TID 0000.0001) %MON dynstat_theta_max            =  -2.0999092526231E+00
(PID.TID 0000.0001) %MON dynstat_theta_min            =  -2.1874407925316E+00
(PID.TID 0000.0001) %MON dynstat_theta_mean           =  -2.1094583913023E+00
(PID.TID 0000.0001) %MON dynstat_theta_sd             =   1.2720865474794E-02
(PID.TID 0000.0001) %MON dynstat_theta_del2           =   3.4244934661949E-05
(PID.TID 0000.0001) %MON dynstat_salt_max             =   3.4499996981941E+01
(PID.TID 0000.0001) %MON dynstat_salt_min             =   3.4469415059133E+01
(PID.TID 0000.0001) %MON dynstat_salt_mean            =   3.4496365291109E+01
(PID.TID 0000.0001) %MON dynstat_salt_sd              =   5.2276958583585E-03
(PID.TID 0000.0001) %MON dynstat_salt_del2            =   3.2592738919634E-06
(PID.TID 0000.0001) %MON trAdv_CFL_u_max              =   7.1829715839091E-03
(PID.TID 0000.0001) %MON trAdv_CFL_v_max              =   1.3853756348503E-02
(PID.TID 0000.0001) %MON trAdv_CFL_w_max              =   9.8358142248926E-03
(PID.TID 0000.0001) %MON advcfl_uvel_max              =   7.1829715839091E-03
(PID.TID 0000.0001) %MON advcfl_vvel_max              =   1.3853756348503E-02
(PID.TID 0000.0001) %MON advcfl_wvel_max              =   9.8358142248926E-03
(PID.TID 0000.0001) %MON advcfl_W_hf_max              =   1.0349768811632E-02
(PID.TID 0000.0001) %MON pe_b_mean                    =   9.1872126889312E-05
(PID.TID 0000.0001) %MON ke_max                       =   1.9301198379175E-04
(PID.TID 0000.0001) %MON ke_mean                      =   6.6602642369349E-06
(PID.TID 0000.0001) %MON ke_vol                       =   1.8654725220387E+09
(PID.TID 0000.0001) %MON vort_r_min                   =  -2.4594167212318E-04
(PID.TID 0000.0001) %MON vort_r_max                   =   2.1327651710386E-04
(PID.TID 0000.0001) %MON vort_a_mean                  =   1.0000782634673E-04
(PID.TID 0000.0001) %MON vort_a_sd                    =   3.3252685241307E-05
(PID.TID 0000.0001) %MON vort_p_mean                  =   1.1991916022492E-04
(PID.TID 0000.0001) %MON vort_p_sd                    =   9.1612200888314E-05
(PID.TID 0000.0001) %MON surfExpan_theta_mean         =  -4.9251817533477E-13
(PID.TID 0000.0001) %MON surfExpan_salt_mean          =  -2.1246011650858E-13
(PID.TID 0000.0001) // =======================================================
(PID.TID 0000.0001) // End MONITOR dynamic field statistics
(PID.TID 0000.0001) // =======================================================
(PID.TID 0000.0001) // =======================================================
(PID.TID 0000.0001) // Begin MONITOR dynamic field statistics
(PID.TID 0000.0001) // =======================================================
(PID.TID 0000.0001) %MON time_tsnumber                =                 61560
(PID.TID 0000.0001) %MON time_secondsf                =   4.9248000000000E+06
(PID.TID 0000.0001) %MON dynstat_eta_max              =   2.1235527712796E-01
(PID.TID 0000.0001) %MON dynstat_eta_min              =  -1.3536359038640E-01
(PID.TID 0000.0001) %MON dynstat_eta_mean             =   5.3540516938514E-17
(PID.TID 0000.0001) %MON dynstat_eta_sd               =   6.3152681020599E-02
(PID.TID 0000.0001) %MON dynstat_eta_del2             =   1.3738668302653E-03
(PID.TID 0000.0001) %MON dynstat_uvel_max             =   1.7062155670817E-02
(PID.TID 0000.0001) %MON dynstat_uvel_min             =  -1.8964913312634E-02
(PID.TID 0000.0001) %MON dynstat_uvel_mean            =  -1.1547311480926E-10
(PID.TID 0000.0001) %MON dynstat_uvel_sd              =   3.3337792973554E-03
(PID.TID 0000.0001) %MON dynstat_uvel_del2            =   1.9197100791056E-05
(PID.TID 0000.0001) %MON dynstat_vvel_max             =   1.3946289781026E-02
(PID.TID 0000.0001) %MON dynstat_vvel_min             =  -1.2435313321267E-02
(PID.TID 0000.0001) %MON dynstat_vvel_mean            =   2.3649163766422E-11
(PID.TID 0000.0001) %MON dynstat_vvel_sd              =   1.4472955682434E-03
(PID.TID 0000.0001) %MON dynstat_vvel_del2            =   2.0295768712030E-05
(PID.TID 0000.0001) %MON dynstat_wvel_max             =   1.2826994405589E-03
(PID.TID 0000.0001) %MON dynstat_wvel_min             =  -1.1867796220177E-03
(PID.TID 0000.0001) %MON dynstat_wvel_mean            =   1.5530344973456E-11
(PID.TID 0000.0001) %MON dynstat_wvel_sd              =   9.4136721401561E-05
(PID.TID 0000.0001) %MON dynstat_wvel_del2            =   2.5316322322968E-06
(PID.TID 0000.0001) %MON dynstat_theta_max            =  -2.0999709720918E+00
(PID.TID 0000.0001) %MON dynstat_theta_min            =  -2.1897567186515E+00
(PID.TID 0000.0001) %MON dynstat_theta_mean           =  -2.1098430875731E+00
(PID.TID 0000.0001) %MON dynstat_theta_sd             =   1.3133145214280E-02
(PID.TID 0000.0001) %MON dynstat_theta_del2           =   3.3317809742925E-05
(PID.TID 0000.0001) %MON dynstat_salt_max             =   3.4499996556593E+01
(PID.TID 0000.0001) %MON dynstat_salt_min             =   3.4469482850771E+01
(PID.TID 0000.0001) %MON dynstat_salt_mean            =   3.4496221371286E+01
(PID.TID 0000.0001) %MON dynstat_salt_sd              =   5.3967449954022E-03
(PID.TID 0000.0001) %MON dynstat_salt_del2            =   3.0621015853329E-06
(PID.TID 0000.0001) %MON trAdv_CFL_u_max              =   6.5774341243162E-03
(PID.TID 0000.0001) %MON trAdv_CFL_v_max              =   1.3248975291974E-02
(PID.TID 0000.0001) %MON trAdv_CFL_w_max              =   9.3287232040647E-03
(PID.TID 0000.0001) %MON advcfl_uvel_max              =   6.5774341243162E-03
(PID.TID 0000.0001) %MON advcfl_vvel_max              =   1.3248975291974E-02
(PID.TID 0000.0001) %MON advcfl_wvel_max              =   9.3287232040647E-03
(PID.TID 0000.0001) %MON advcfl_W_hf_max              =   1.0812200389363E-02
(PID.TID 0000.0001) %MON pe_b_mean                    =   9.1828679505398E-05
(PID.TID 0000.0001) %MON ke_max                       =   1.5762180901793E-04
(PID.TID 0000.0001) %MON ke_mean                      =   6.2620121408085E-06
(PID.TID 0000.0001) %MON ke_vol                       =   1.8654725220387E+09
(PID.TID 0000.0001) %MON vort_r_min                   =  -2.2520834558753E-04
(PID.TID 0000.0001) %MON vort_r_max                   =   2.1294227606852E-04
(PID.TID 0000.0001) %MON vort_a_mean                  =   1.0000782634673E-04
(PID.TID 0000.0001) %MON vort_a_sd                    =   3.1700631201554E-05
(PID.TID 0000.0001) %MON vort_p_mean                  =   1.1991916022492E-04
(PID.TID 0000.0001) %MON vort_p_sd                    =   9.0393650203690E-05
(PID.TID 0000.0001) %MON surfExpan_theta_mean         =  -4.6210213351331E-13
(PID.TID 0000.0001) %MON surfExpan_salt_mean          =  -2.0005017093649E-13
(PID.TID 0000.0001) // =======================================================
(PID.TID 0000.0001) // End MONITOR dynamic field statistics
(PID.TID 0000.0001) // =======================================================
(PID.TID 0000.0001) // =======================================================
(PID.TID 0000.0001) // Begin MONITOR dynamic field statistics
(PID.TID 0000.0001) // =======================================================
(PID.TID 0000.0001) %MON time_tsnumber                =                 64800
(PID.TID 0000.0001) %MON time_secondsf                =   5.1840000000000E+06
(PID.TID 0000.0001) %MON dynstat_eta_max              =   2.1233730224148E-01
(PID.TID 0000.0001) %MON dynstat_eta_min              =  -1.3532490898349E-01
(PID.TID 0000.0001) %MON dynstat_eta_mean             =   4.5495568797494E-17
(PID.TID 0000.0001) %MON dynstat_eta_sd               =   6.3138903391860E-02
(PID.TID 0000.0001) %MON dynstat_eta_del2             =   1.3736242246419E-03
(PID.TID 0000.0001) %MON dynstat_uvel_max             =   1.6925377517875E-02
(PID.TID 0000.0001) %MON dynstat_uvel_min             =  -1.8278611430921E-02
(PID.TID 0000.0001) %MON dynstat_uvel_mean            =  -6.8123130337007E-11
(PID.TID 0000.0001) %MON dynstat_uvel_sd              =   3.2942931887177E-03
(PID.TID 0000.0001) %MON dynstat_uvel_del2            =   1.8545816205652E-05
(PID.TID 0000.0001) %MON dynstat_vvel_max             =   1.3520557252413E-02
(PID.TID 0000.0001) %MON dynstat_vvel_min             =  -1.2480533426014E-02
(PID.TID 0000.0001) %MON dynstat_vvel_mean            =   1.6946966560649E-11
(PID.TID 0000.0001) %MON dynstat_vvel_sd              =   1.4294192800618E-03
(PID.TID 0000.0001) %MON dynstat_vvel_del2            =   1.9721982029342E-05
(PID.TID 0000.0001) %MON dynstat_wvel_max             =   1.3254200807260E-03
(PID.TID 0000.0001) %MON dynstat_wvel_min             =  -8.6862129686088E-04
(PID.TID 0000.0001) %MON dynstat_wvel_mean            =   1.4153449792460E-11
(PID.TID 0000.0001) %MON dynstat_wvel_sd              =   9.0223631903402E-05
(PID.TID 0000.0001) %MON dynstat_wvel_del2            =   2.3737127066208E-06
(PID.TID 0000.0001) %MON dynstat_theta_max            =  -2.1000117526557E+00
(PID.TID 0000.0001) %MON dynstat_theta_min            =  -2.1915700470628E+00
(PID.TID 0000.0001) %MON dynstat_theta_mean           =  -2.1102172940401E+00
(PID.TID 0000.0001) %MON dynstat_theta_sd             =   1.3529346382255E-02
(PID.TID 0000.0001) %MON dynstat_theta_del2           =   3.4456233833270E-05
(PID.TID 0000.0001) %MON dynstat_salt_max             =   3.4499996463683E+01
(PID.TID 0000.0001) %MON dynstat_salt_min             =   3.4469215815890E+01
(PID.TID 0000.0001) %MON dynstat_salt_mean            =   3.4496081774706E+01
(PID.TID 0000.0001) %MON dynstat_salt_sd              =   5.5530679205500E-03
(PID.TID 0000.0001) %MON dynstat_salt_del2            =   3.1557987673176E-06
(PID.TID 0000.0001) %MON trAdv_CFL_u_max              =   6.3394100773856E-03
(PID.TID 0000.0001) %MON trAdv_CFL_v_max              =   1.2844529389793E-02
(PID.TID 0000.0001) %MON trAdv_CFL_w_max              =   9.6394187689165E-03
(PID.TID 0000.0001) %MON advcfl_uvel_max              =   6.3394100773856E-03
(PID.TID 0000.0001) %MON advcfl_vvel_max              =   1.2844529389793E-02
(PID.TID 0000.0001) %MON advcfl_wvel_max              =   9.6394187689165E-03
(PID.TID 0000.0001) %MON advcfl_W_hf_max              =   1.0352339804955E-02
(PID.TID 0000.0001) %MON pe_b_mean                    =   9.1788822562324E-05
(PID.TID 0000.0001) %MON ke_max                       =   1.4939218980468E-04
(PID.TID 0000.0001) %MON ke_mean                      =   6.1136143205277E-06
(PID.TID 0000.0001) %MON ke_vol                       =   1.8654725220387E+09
(PID.TID 0000.0001) %MON vort_r_min                   =  -2.1705851074219E-04
(PID.TID 0000.0001) %MON vort_r_max                   =   2.0937003756894E-04
(PID.TID 0000.0001) %MON vort_a_mean                  =   1.0000782634673E-04
(PID.TID 0000.0001) %MON vort_a_sd                    =   3.1202521561257E-05
(PID.TID 0000.0001) %MON vort_p_mean                  =   1.1991916022492E-04
(PID.TID 0000.0001) %MON vort_p_sd                    =   9.0747591095895E-05
(PID.TID 0000.0001) %MON surfExpan_theta_mean         =  -4.7084765614629E-13
(PID.TID 0000.0001) %MON surfExpan_salt_mean          =  -2.0326529067783E-13
(PID.TID 0000.0001) // =======================================================
(PID.TID 0000.0001) // End MONITOR dynamic field statistics
(PID.TID 0000.0001) // =======================================================
(PID.TID 0000.0001) %CHECKPOINT     64800 0000064800
(PID.TID 0000.0001) // =======================================================
(PID.TID 0000.0001) // Begin MONITOR dynamic field statistics
(PID.TID 0000.0001) // =======================================================
(PID.TID 0000.0001) %MON time_tsnumber                =                 68040
(PID.TID 0000.0001) %MON time_secondsf                =   5.4432000000000E+06
(PID.TID 0000.0001) %MON dynstat_eta_max              =   2.1231723471113E-01
(PID.TID 0000.0001) %MON dynstat_eta_min              =  -1.3529110181042E-01
(PID.TID 0000.0001) %MON dynstat_eta_mean             =   2.0528488359845E-17
(PID.TID 0000.0001) %MON dynstat_eta_sd               =   6.3125306170685E-02
(PID.TID 0000.0001) %MON dynstat_eta_del2             =   1.3733540652650E-03
(PID.TID 0000.0001) %MON dynstat_uvel_max             =   1.7682074622676E-02
(PID.TID 0000.0001) %MON dynstat_uvel_min             =  -1.7637661013473E-02
(PID.TID 0000.0001) %MON dynstat_uvel_mean            =  -1.1112641116223E-10
(PID.TID 0000.0001) %MON dynstat_uvel_sd              =   3.3116255201847E-03
(PID.TID 0000.0001) %MON dynstat_uvel_del2            =   1.9811550888573E-05
(PID.TID 0000.0001) %MON dynstat_vvel_max             =   1.5139490873586E-02
(PID.TID 0000.0001) %MON dynstat_vvel_min             =  -1.3485054790199E-02
(PID.TID 0000.0001) %MON dynstat_vvel_mean            =   2.0392465484002E-11
(PID.TID 0000.0001) %MON dynstat_vvel_sd              =   1.4418366560433E-03
(PID.TID 0000.0001) %MON dynstat_vvel_del2            =   2.0526858268173E-05
(PID.TID 0000.0001) %MON dynstat_wvel_max             =   1.0748967789704E-03
(PID.TID 0000.0001) %MON dynstat_wvel_min             =  -1.3012264135795E-03
(PID.TID 0000.0001) %MON dynstat_wvel_mean            =   1.4400491912015E-11
(PID.TID 0000.0001) %MON dynstat_wvel_sd              =   9.6804742335126E-05
(PID.TID 0000.0001) %MON dynstat_wvel_del2            =   2.9473494907274E-06
(PID.TID 0000.0001) %MON dynstat_theta_max            =  -2.0999808479530E+00
(PID.TID 0000.0001) %MON dynstat_theta_min            =  -2.1925014905419E+00
(PID.TID 0000.0001) %MON dynstat_theta_mean           =  -2.1105937599164E+00
(PID.TID 0000.0001) %MON dynstat_theta_sd             =   1.3924614262342E-02
(PID.TID 0000.0001) %MON dynstat_theta_del2           =   3.6293941147258E-05
(PID.TID 0000.0001) %MON dynstat_salt_max             =   3.4499996114763E+01
(PID.TID 0000.0001) %MON dynstat_salt_min             =   3.4469065626124E+01
(PID.TID 0000.0001) %MON dynstat_salt_mean            =   3.4495941248025E+01
(PID.TID 0000.0001) %MON dynstat_salt_sd              =   5.7082167616580E-03
(PID.TID 0000.0001) %MON dynstat_salt_del2            =   3.2162998434971E-06
(PID.TID 0000.0001) %MON trAdv_CFL_u_max              =   6.1325184615748E-03
(PID.TID 0000.0001) %MON trAdv_CFL_v_max              =   1.4382516329907E-02
(PID.TID 0000.0001) %MON trAdv_CFL_w_max              =   9.4634648260326E-03
(PID.TID 0000.0001) %MON advcfl_uvel_max              =   6.1325184615748E-03
(PID.TID 0000.0001) %MON advcfl_vvel_max              =   1.4382516329907E-02
(PID.TID 0000.0001) %MON advcfl_wvel_max              =   9.4634648260326E-03
(PID.TID 0000.0001) %MON advcfl_W_hf_max              =   1.1231713086254E-02
(PID.TID 0000.0001) %MON pe_b_mean                    =   9.1749167646539E-05
(PID.TID 0000.0001) %MON ke_max                       =   1.4913337839555E-04
(PID.TID 0000.0001) %MON ke_mean                      =   6.1844175898131E-06
(PID.TID 0000.0001) %MON ke_vol                       =   1.8654725220387E+09
(PID.TID 0000.0001) %MON vort_r_min                   =  -2.0944722453499E-04
(PID.TID 0000.0001) %MON vort_r_max                   =   2.2712433746533E-04
(PID.TID 0000.0001) %MON vort_a_mean                  =   1.0000782634673E-04
(PID.TID 0000.0001) %MON vort_a_sd                    =   3.1227755846685E-05
(PID.TID 0000.0001) %MON vort_p_mean                  =   1.1991916022492E-04
(PID.TID 0000.0001) %MON vort_p_sd                    =   9.0646213225639E-05
(PID.TID 0000.0001) %MON surfExpan_theta_mean         =  -4.7945909759218E-13
(PID.TID 0000.0001) %MON surfExpan_salt_mean          =  -2.1363861004411E-13
(PID.TID 0000.0001) // =======================================================
(PID.TID 0000.0001) // End MONITOR dynamic field statistics
(PID.TID 0000.0001) // =======================================================
(PID.TID 0000.0001) // =======================================================
(PID.TID 0000.0001) // Begin MONITOR dynamic field statistics
(PID.TID 0000.0001) // =======================================================
(PID.TID 0000.0001) %MON time_tsnumber                =                 71280
(PID.TID 0000.0001) %MON time_secondsf                =   5.7024000000000E+06
(PID.TID 0000.0001) %MON dynstat_eta_max              =   2.1229729416891E-01
(PID.TID 0000.0001) %MON dynstat_eta_min              =  -1.3526256699572E-01
(PID.TID 0000.0001) %MON dynstat_eta_mean             =   4.0224740705101E-17
(PID.TID 0000.0001) %MON dynstat_eta_sd               =   6.3112398128510E-02
(PID.TID 0000.0001) %MON dynstat_eta_del2             =   1.3731049925455E-03
(PID.TID 0000.0001) %MON dynstat_uvel_max             =   1.8958525388132E-02
(PID.TID 0000.0001) %MON dynstat_uvel_min             =  -1.6848116513670E-02
(PID.TID 0000.0001) %MON dynstat_uvel_mean            =  -6.0702089948196E-11
(PID.TID 0000.0001) %MON dynstat_uvel_sd              =   3.3389991018675E-03
(PID.TID 0000.0001) %MON dynstat_uvel_del2            =   1.9617174866883E-05
(PID.TID 0000.0001) %MON dynstat_vvel_max             =   1.5517538641491E-02
(PID.TID 0000.0001) %MON dynstat_vvel_min             =  -1.2781359533917E-02
(PID.TID 0000.0001) %MON dynstat_vvel_mean            =   2.1401260834479E-11
(PID.TID 0000.0001) %MON dynstat_vvel_sd              =   1.4244474111511E-03
(PID.TID 0000.0001) %MON dynstat_vvel_del2            =   2.0480361876281E-05
(PID.TID 0000.0001) %MON dynstat_wvel_max             =   1.0390878925813E-03
(PID.TID 0000.0001) %MON dynstat_wvel_min             =  -9.7770821247416E-04
(PID.TID 0000.0001) %MON dynstat_wvel_mean            =   1.3834315387381E-11
(PID.TID 0000.0001) %MON dynstat_wvel_sd              =   9.3442012730877E-05
(PID.TID 0000.0001) %MON dynstat_wvel_del2            =   2.7402914207347E-06
(PID.TID 0000.0001) %MON dynstat_theta_max            =  -2.0997691996411E+00
(PID.TID 0000.0001) %MON dynstat_theta_min            =  -2.1926876765025E+00
(PID.TID 0000.0001) %MON dynstat_theta_mean           =  -2.1109669828217E+00
(PID.TID 0000.0001) %MON dynstat_theta_sd             =   1.4303559031393E-02
(PID.TID 0000.0001) %MON dynstat_theta_del2           =   3.5675146921322E-05
(PID.TID 0000.0001) %MON dynstat_salt_max             =   3.4499997412597E+01
(PID.TID 0000.0001) %MON dynstat_salt_min             =   3.4468870163825E+01
(PID.TID 0000.0001) %MON dynstat_salt_mean            =   3.4495802058042E+01
(PID.TID 0000.0001) %MON dynstat_salt_sd              =   5.8580396157179E-03
(PID.TID 0000.0001) %MON dynstat_salt_del2            =   3.1695351653596E-06
(PID.TID 0000.0001) %MON trAdv_CFL_u_max              =   6.5752186566307E-03
(PID.TID 0000.0001) %MON trAdv_CFL_v_max              =   1.4741661709416E-02
(PID.TID 0000.0001) %MON trAdv_CFL_w_max              =   7.5570028551370E-03
(PID.TID 0000.0001) %MON advcfl_uvel_max              =   6.5752186566307E-03
(PID.TID 0000.0001) %MON advcfl_vvel_max              =   1.4741661709416E-02
(PID.TID 0000.0001) %MON advcfl_wvel_max              =   7.5570028551370E-03
(PID.TID 0000.0001) %MON advcfl_W_hf_max              =   1.1647447098141E-02
(PID.TID 0000.0001) %MON pe_b_mean                    =   9.1711379813439E-05
(PID.TID 0000.0001) %MON ke_max                       =   1.6418075822820E-04
(PID.TID 0000.0001) %MON ke_mean                      =   6.2493653932511E-06
(PID.TID 0000.0001) %MON ke_vol                       =   1.8654725220387E+09
(PID.TID 0000.0001) %MON vort_r_min                   =  -2.0556446109834E-04
(PID.TID 0000.0001) %MON vort_r_max                   =   2.3502439726387E-04
(PID.TID 0000.0001) %MON vort_a_mean                  =   1.0000782634673E-04
(PID.TID 0000.0001) %MON vort_a_sd                    =   3.1118591891951E-05
(PID.TID 0000.0001) %MON vort_p_mean                  =   1.1991916022492E-04
(PID.TID 0000.0001) %MON vort_p_sd                    =   8.9978907542110E-05
(PID.TID 0000.0001) %MON surfExpan_theta_mean         =  -4.8775547216453E-13
(PID.TID 0000.0001) %MON surfExpan_salt_mean          =  -2.0825891246442E-13
(PID.TID 0000.0001) // =======================================================
(PID.TID 0000.0001) // End MONITOR dynamic field statistics
(PID.TID 0000.0001) // =======================================================
(PID.TID 0000.0001) // =======================================================
(PID.TID 0000.0001) // Begin MONITOR dynamic field statistics
(PID.TID 0000.0001) // =======================================================
(PID.TID 0000.0001) %MON time_tsnumber                =                 74520
(PID.TID 0000.0001) %MON time_secondsf                =   5.9616000000000E+06
(PID.TID 0000.0001) %MON dynstat_eta_max              =   2.1227870412705E-01
(PID.TID 0000.0001) %MON dynstat_eta_min              =  -1.3523153453544E-01
(PID.TID 0000.0001) %MON dynstat_eta_mean             =   5.6869460996868E-17
(PID.TID 0000.0001) %MON dynstat_eta_sd               =   6.3099601279591E-02
(PID.TID 0000.0001) %MON dynstat_eta_del2             =   1.3728756867655E-03
(PID.TID 0000.0001) %MON dynstat_uvel_max             =   1.8439666574333E-02
(PID.TID 0000.0001) %MON dynstat_uvel_min             =  -1.6331171502288E-02
(PID.TID 0000.0001) %MON dynstat_uvel_mean            =  -1.0163567095663E-10
(PID.TID 0000.0001) %MON dynstat_uvel_sd              =   3.3742585084240E-03
(PID.TID 0000.0001) %MON dynstat_uvel_del2            =   2.0597135028170E-05
(PID.TID 0000.0001) %MON dynstat_vvel_max             =   1.4960462914047E-02
(PID.TID 0000.0001) %MON dynstat_vvel_min             =  -1.0864476190982E-02
(PID.TID 0000.0001) %MON dynstat_vvel_mean            =   2.2212129757647E-11
(PID.TID 0000.0001) %MON dynstat_vvel_sd              =   1.3980234630362E-03
(PID.TID 0000.0001) %MON dynstat_vvel_del2            =   2.1039268049681E-05
(PID.TID 0000.0001) %MON dynstat_wvel_max             =   1.6112643051093E-03
(PID.TID 0000.0001) %MON dynstat_wvel_min             =  -1.3337685295365E-03
(PID.TID 0000.0001) %MON dynstat_wvel_mean            =   1.3919485400386E-11
(PID.TID 0000.0001) %MON dynstat_wvel_sd              =   9.9464064799534E-05
(PID.TID 0000.0001) %MON dynstat_wvel_del2            =   3.0040298982625E-06
(PID.TID 0000.0001) %MON dynstat_theta_max            =  -2.0997814148496E+00
(PID.TID 0000.0001) %MON dynstat_theta_min            =  -2.1933563350393E+00
(PID.TID 0000.0001) %MON dynstat_theta_mean           =  -2.1113426869369E+00
(PID.TID 0000.0001) %MON dynstat_theta_sd             =   1.4660424036335E-02
(PID.TID 0000.0001) %MON dynstat_theta_del2           =   3.6065877962675E-05
(PID.TID 0000.0001) %MON dynstat_salt_max             =   3.4500017700709E+01
(PID.TID 0000.0001) %MON dynstat_salt_min             =   3.4468774527523E+01
(PID.TID 0000.0001) %MON dynstat_salt_mean            =   3.4495661846995E+01
(PID.TID 0000.0001) %MON dynstat_salt_sd              =   6.0046864011912E-03
(PID.TID 0000.0001) %MON dynstat_salt_del2            =   3.1941727658399E-06
(PID.TID 0000.0001) %MON trAdv_CFL_u_max              =   6.3952674166052E-03
(PID.TID 0000.0001) %MON trAdv_CFL_v_max              =   1.4212439768345E-02
(PID.TID 0000.0001) %MON trAdv_CFL_w_max              =   1.1718285855340E-02
(PID.TID 0000.0001) %MON advcfl_uvel_max              =   6.3952674166052E-03
(PID.TID 0000.0001) %MON advcfl_vvel_max              =   1.4212439768345E-02
(PID.TID 0000.0001) %MON advcfl_wvel_max              =   1.1718285855340E-02
(PID.TID 0000.0001) %MON advcfl_W_hf_max              =   1.1718285855340E-02
(PID.TID 0000.0001) %MON pe_b_mean                    =   9.1673924138511E-05
(PID.TID 0000.0001) %MON ke_max                       =   1.5400062108443E-04
(PID.TID 0000.0001) %MON ke_mean                      =   6.3294408846579E-06
(PID.TID 0000.0001) %MON ke_vol                       =   1.8654725220387E+09
(PID.TID 0000.0001) %MON vort_r_min                   =  -2.2219749069592E-04
(PID.TID 0000.0001) %MON vort_r_max                   =   2.2225947742664E-04
(PID.TID 0000.0001) %MON vort_a_mean                  =   1.0000782634673E-04
(PID.TID 0000.0001) %MON vort_a_sd                    =   3.1251980888605E-05
(PID.TID 0000.0001) %MON vort_p_mean                  =   1.1991916022492E-04
(PID.TID 0000.0001) %MON vort_p_sd                    =   8.9297760915865E-05
(PID.TID 0000.0001) %MON surfExpan_theta_mean         =  -4.9131168077351E-13
(PID.TID 0000.0001) %MON surfExpan_salt_mean          =  -2.1376907159149E-13
(PID.TID 0000.0001) // =======================================================
(PID.TID 0000.0001) // End MONITOR dynamic field statistics
(PID.TID 0000.0001) // =======================================================
(PID.TID 0000.0001) // =======================================================
(PID.TID 0000.0001) // Begin MONITOR dynamic field statistics
(PID.TID 0000.0001) // =======================================================
(PID.TID 0000.0001) %MON time_tsnumber                =                 77760
(PID.TID 0000.0001) %MON time_secondsf                =   6.2208000000000E+06
(PID.TID 0000.0001) %MON dynstat_eta_max              =   2.1226107654642E-01
(PID.TID 0000.0001) %MON dynstat_eta_min              =  -1.3519993056651E-01
(PID.TID 0000.0001) %MON dynstat_eta_mean             =   6.0475817060084E-17
(PID.TID 0000.0001) %MON dynstat_eta_sd               =   6.3087460624591E-02
(PID.TID 0000.0001) %MON dynstat_eta_del2             =   1.3726714248317E-03
(PID.TID 0000.0001) %MON dynstat_uvel_max             =   1.6860864826910E-02
(PID.TID 0000.0001) %MON dynstat_uvel_min             =  -1.5591347618313E-02
(PID.TID 0000.0001) %MON dynstat_uvel_mean            =  -8.0321038011777E-11
(PID.TID 0000.0001) %MON dynstat_uvel_sd              =   3.3930878650174E-03
(PID.TID 0000.0001) %MON dynstat_uvel_del2            =   1.9002439221460E-05
(PID.TID 0000.0001) %MON dynstat_vvel_max             =   1.3324729343870E-02
(PID.TID 0000.0001) %MON dynstat_vvel_min             =  -8.5051594514387E-03
(PID.TID 0000.0001) %MON dynstat_vvel_mean            =   2.0091020026267E-11
(PID.TID 0000.0001) %MON dynstat_vvel_sd              =   1.3127621035347E-03
(PID.TID 0000.0001) %MON dynstat_vvel_del2            =   2.0567169859679E-05
(PID.TID 0000.0001) %MON dynstat_wvel_max             =   8.4773906808022E-04
(PID.TID 0000.0001) %MON dynstat_wvel_min             =  -8.0425207202913E-04
(PID.TID 0000.0001) %MON dynstat_wvel_mean            =   1.2736584947745E-11
(PID.TID 0000.0001) %MON dynstat_wvel_sd              =   8.5396166170391E-05
(PID.TID 0000.0001) %MON dynstat_wvel_del2            =   2.5607591194359E-06
(PID.TID 0000.0001) %MON dynstat_theta_max            =  -2.0998376018136E+00
(PID.TID 0000.0001) %MON dynstat_theta_min            =  -2.1941476421930E+00
(PID.TID 0000.0001) %MON dynstat_theta_mean           =  -2.1117114765664E+00
(PID.TID 0000.0001) %MON dynstat_theta_sd             =   1.4996354336038E-02
(PID.TID 0000.0001) %MON dynstat_theta_del2           =   3.4926876289344E-05
(PID.TID 0000.0001) %MON dynstat_salt_max             =   3.4500002273668E+01
(PID.TID 0000.0001) %MON dynstat_salt_min             =   3.4468510736526E+01
(PID.TID 0000.0001) %MON dynstat_salt_mean            =   3.4495524485344E+01
(PID.TID 0000.0001) %MON dynstat_salt_sd              =   6.1430280009605E-03
(PID.TID 0000.0001) %MON dynstat_salt_del2            =   2.9591546430272E-06
(PID.TID 0000.0001) %MON trAdv_CFL_u_max              =   5.8477054890686E-03
(PID.TID 0000.0001) %MON trAdv_CFL_v_max              =   1.2658492876676E-02
(PID.TID 0000.0001) %MON trAdv_CFL_w_max              =   6.1653750405835E-03
(PID.TID 0000.0001) %MON advcfl_uvel_max              =   5.8477054890686E-03
(PID.TID 0000.0001) %MON advcfl_vvel_max              =   1.2658492876676E-02
(PID.TID 0000.0001) %MON advcfl_wvel_max              =   6.1653750405835E-03
(PID.TID 0000.0001) %MON advcfl_W_hf_max              =   9.6884464923454E-03
(PID.TID 0000.0001) %MON pe_b_mean                    =   9.1638271251880E-05
(PID.TID 0000.0001) %MON ke_max                       =   1.2466287226861E-04
(PID.TID 0000.0001) %MON ke_mean                      =   6.2871611575377E-06
(PID.TID 0000.0001) %MON ke_vol                       =   1.8654725220387E+09
(PID.TID 0000.0001) %MON vort_r_min                   =  -2.1461676577330E-04
(PID.TID 0000.0001) %MON vort_r_max                   =   1.9611168708203E-04
(PID.TID 0000.0001) %MON vort_a_mean                  =   1.0000782634673E-04
(PID.TID 0000.0001) %MON vort_a_sd                    =   3.0783871306741E-05
(PID.TID 0000.0001) %MON vort_p_mean                  =   1.1991916022492E-04
(PID.TID 0000.0001) %MON vort_p_sd                    =   8.7545011127612E-05
(PID.TID 0000.0001) %MON surfExpan_theta_mean         =  -4.6359049139852E-13
(PID.TID 0000.0001) %MON surfExpan_salt_mean          =  -2.0027960612435E-13
(PID.TID 0000.0001) // =======================================================
(PID.TID 0000.0001) // End MONITOR dynamic field statistics
(PID.TID 0000.0001) // =======================================================
(PID.TID 0000.0001) // =======================================================
(PID.TID 0000.0001) // Begin MONITOR dynamic field statistics
(PID.TID 0000.0001) // =======================================================
(PID.TID 0000.0001) %MON time_tsnumber                =                 81000
(PID.TID 0000.0001) %MON time_secondsf                =   6.4800000000000E+06
(PID.TID 0000.0001) %MON dynstat_eta_max              =   2.1224238901960E-01
(PID.TID 0000.0001) %MON dynstat_eta_min              =  -1.3517173912093E-01
(PID.TID 0000.0001) %MON dynstat_eta_mean             =   6.3249937108711E-17
(PID.TID 0000.0001) %MON dynstat_eta_sd               =   6.3076076254239E-02
(PID.TID 0000.0001) %MON dynstat_eta_del2             =   1.3724542184277E-03
(PID.TID 0000.0001) %MON dynstat_uvel_max             =   1.4647534412978E-02
(PID.TID 0000.0001) %MON dynstat_uvel_min             =  -1.5676754202720E-02
(PID.TID 0000.0001) %MON dynstat_uvel_mean            =  -9.4584164662282E-11
(PID.TID 0000.0001) %MON dynstat_uvel_sd              =   3.4544961995414E-03
(PID.TID 0000.0001) %MON dynstat_uvel_del2            =   1.6849507440696E-05
(PID.TID 0000.0001) %MON dynstat_vvel_max             =   9.9005925431434E-03
(PID.TID 0000.0001) %MON dynstat_vvel_min             =  -7.0448099576167E-03
(PID.TID 0000.0001) %MON dynstat_vvel_mean            =   1.7078383922451E-11
(PID.TID 0000.0001) %MON dynstat_vvel_sd              =   1.1955314465351E-03
(PID.TID 0000.0001) %MON dynstat_vvel_del2            =   1.8692870766652E-05
(PID.TID 0000.0001) %MON dynstat_wvel_max             =   7.0354376199065E-04
(PID.TID 0000.0001) %MON dynstat_wvel_min             =  -8.7462292363197E-04
(PID.TID 0000.0001) %MON dynstat_wvel_mean            =   1.2262092178859E-11
(PID.TID 0000.0001) %MON dynstat_wvel_sd              =   6.9964323671252E-05
(PID.TID 0000.0001) %MON dynstat_wvel_del2            =   1.9806164207858E-06
(PID.TID 0000.0001) %MON dynstat_theta_max            =  -2.0999536908098E+00
(PID.TID 0000.0001) %MON dynstat_theta_min            =  -2.1953907573194E+00
(PID.TID 0000.0001) %MON dynstat_theta_mean           =  -2.1120866829548E+00
(PID.TID 0000.0001) %MON dynstat_theta_sd             =   1.5320802304809E-02
(PID.TID 0000.0001) %MON dynstat_theta_del2           =   3.3040253149267E-05
(PID.TID 0000.0001) %MON dynstat_salt_max             =   3.4499995695131E+01
(PID.TID 0000.0001) %MON dynstat_salt_min             =   3.4468183861030E+01
(PID.TID 0000.0001) %MON dynstat_salt_mean            =   3.4495384481687E+01
(PID.TID 0000.0001) %MON dynstat_salt_sd              =   6.2775147923502E-03
(PID.TID 0000.0001) %MON dynstat_salt_del2            =   2.7615606382600E-06
(PID.TID 0000.0001) %MON trAdv_CFL_u_max              =   5.4370308132543E-03
(PID.TID 0000.0001) %MON trAdv_CFL_v_max              =   9.4055629159863E-03
(PID.TID 0000.0001) %MON trAdv_CFL_w_max              =   6.3608939900507E-03
(PID.TID 0000.0001) %MON advcfl_uvel_max              =   5.4370308132543E-03
(PID.TID 0000.0001) %MON advcfl_vvel_max              =   9.4055629159863E-03
(PID.TID 0000.0001) %MON advcfl_wvel_max              =   6.3608939900507E-03
(PID.TID 0000.0001) %MON advcfl_W_hf_max              =   7.1011954978942E-03
(PID.TID 0000.0001) %MON pe_b_mean                    =   9.1604592176154E-05
(PID.TID 0000.0001) %MON ke_max                       =   1.1731642879299E-04
(PID.TID 0000.0001) %MON ke_mean                      =   6.3571786925855E-06
(PID.TID 0000.0001) %MON ke_vol                       =   1.8654725220387E+09
(PID.TID 0000.0001) %MON vort_r_min                   =  -1.8782740913414E-04
(PID.TID 0000.0001) %MON vort_r_max                   =   1.5862334542711E-04
(PID.TID 0000.0001) %MON vort_a_mean                  =   1.0000782634673E-04
(PID.TID 0000.0001) %MON vort_a_sd                    =   3.1030002440656E-05
(PID.TID 0000.0001) %MON vort_p_mean                  =   1.1991916022492E-04
(PID.TID 0000.0001) %MON vort_p_sd                    =   8.6689210115268E-05
(PID.TID 0000.0001) %MON surfExpan_theta_mean         =  -4.7936740728624E-13
(PID.TID 0000.0001) %MON surfExpan_salt_mean          =  -2.0426808253528E-13
(PID.TID 0000.0001) // =======================================================
(PID.TID 0000.0001) // End MONITOR dynamic field statistics
(PID.TID 0000.0001) // =======================================================
(PID.TID 0000.0001) // =======================================================
(PID.TID 0000.0001) // Begin MONITOR dynamic field statistics
(PID.TID 0000.0001) // =======================================================
(PID.TID 0000.0001) %MON time_tsnumber                =                 84240
(PID.TID 0000.0001) %MON time_secondsf                =   6.7392000000000E+06
(PID.TID 0000.0001) %MON dynstat_eta_max              =   2.1222445276573E-01
(PID.TID 0000.0001) %MON dynstat_eta_min              =  -1.3514791339279E-01
(PID.TID 0000.0001) %MON dynstat_eta_mean             =   7.9339833390752E-17
(PID.TID 0000.0001) %MON dynstat_eta_sd               =   6.3065382721632E-02
(PID.TID 0000.0001) %MON dynstat_eta_del2             =   1.3722346742837E-03
(PID.TID 0000.0001) %MON dynstat_uvel_max             =   1.5820326869566E-02
(PID.TID 0000.0001) %MON dynstat_uvel_min             =  -1.5007877722249E-02
(PID.TID 0000.0001) %MON dynstat_uvel_mean            =  -7.2270574193886E-12
(PID.TID 0000.0001) %MON dynstat_uvel_sd              =   3.4876223468415E-03
(PID.TID 0000.0001) %MON dynstat_uvel_del2            =   1.6466597020590E-05
(PID.TID 0000.0001) %MON dynstat_vvel_max             =   1.0550368771737E-02
(PID.TID 0000.0001) %MON dynstat_vvel_min             =  -5.6317929615333E-03
(PID.TID 0000.0001) %MON dynstat_vvel_mean            =   1.2978066889160E-11
(PID.TID 0000.0001) %MON dynstat_vvel_sd              =   1.2355232967223E-03
(PID.TID 0000.0001) %MON dynstat_vvel_del2            =   1.8779042309558E-05
(PID.TID 0000.0001) %MON dynstat_wvel_max             =   6.9804628845499E-04
(PID.TID 0000.0001) %MON dynstat_wvel_min             =  -7.7390692308103E-04
(PID.TID 0000.0001) %MON dynstat_wvel_mean            =   1.1563613320894E-11
(PID.TID 0000.0001) %MON dynstat_wvel_sd              =   6.7094286491139E-05
(PID.TID 0000.0001) %MON dynstat_wvel_del2            =   1.8948689460247E-06
(PID.TID 0000.0001) %MON dynstat_theta_max            =  -2.0999564203880E+00
(PID.TID 0000.0001) %MON dynstat_theta_min            =  -2.1968325719895E+00
(PID.TID 0000.0001) %MON dynstat_theta_mean           =  -2.1124734337561E+00
(PID.TID 0000.0001) %MON dynstat_theta_sd             =   1.5660252501444E-02
(PID.TID 0000.0001) %MON dynstat_theta_del2           =   3.4915162530838E-05
(PID.TID 0000.0001) %MON dynstat_salt_max             =   3.4499995286773E+01
(PID.TID 0000.0001) %MON dynstat_salt_min             =   3.4467729620125E+01
(PID.TID 0000.0001) %MON dynstat_salt_mean            =   3.4495239723441E+01
(PID.TID 0000.0001) %MON dynstat_salt_sd              =   6.4142263021711E-03
(PID.TID 0000.0001) %MON dynstat_salt_del2            =   2.8567231311681E-06
(PID.TID 0000.0001) %MON trAdv_CFL_u_max              =   5.4868248588512E-03
(PID.TID 0000.0001) %MON trAdv_CFL_v_max              =   1.0022850333150E-02
(PID.TID 0000.0001) %MON trAdv_CFL_w_max              =   5.6284139860438E-03
(PID.TID 0000.0001) %MON advcfl_uvel_max              =   5.4868248588512E-03
(PID.TID 0000.0001) %MON advcfl_vvel_max              =   1.0022850333150E-02
(PID.TID 0000.0001) %MON advcfl_wvel_max              =   5.6284139860438E-03
(PID.TID 0000.0001) %MON advcfl_W_hf_max              =   7.9776718680571E-03
(PID.TID 0000.0001) %MON pe_b_mean                    =   9.1572407009151E-05
(PID.TID 0000.0001) %MON ke_max                       =   1.1055250717672E-04
(PID.TID 0000.0001) %MON ke_mean                      =   6.5108387108639E-06
(PID.TID 0000.0001) %MON ke_vol                       =   1.8654725220387E+09
(PID.TID 0000.0001) %MON vort_r_min                   =  -1.8420988582851E-04
(PID.TID 0000.0001) %MON vort_r_max                   =   1.6506104880917E-04
(PID.TID 0000.0001) %MON vort_a_mean                  =   1.0000782634673E-04
(PID.TID 0000.0001) %MON vort_a_sd                    =   3.1238999660936E-05
(PID.TID 0000.0001) %MON vort_p_mean                  =   1.1991916022492E-04
(PID.TID 0000.0001) %MON vort_p_sd                    =   8.5525659208878E-05
(PID.TID 0000.0001) %MON surfExpan_theta_mean         =  -4.8098051506366E-13
(PID.TID 0000.0001) %MON surfExpan_salt_mean          =  -2.0615432308201E-13
(PID.TID 0000.0001) // =======================================================
(PID.TID 0000.0001) // End MONITOR dynamic field statistics
(PID.TID 0000.0001) // =======================================================
(PID.TID 0000.0001) // =======================================================
(PID.TID 0000.0001) // Begin MONITOR dynamic field statistics
(PID.TID 0000.0001) // =======================================================
(PID.TID 0000.0001) %MON time_tsnumber                =                 87480
(PID.TID 0000.0001) %MON time_secondsf                =   6.9984000000000E+06
(PID.TID 0000.0001) %MON dynstat_eta_max              =   2.1220475885148E-01
(PID.TID 0000.0001) %MON dynstat_eta_min              =  -1.3512690183860E-01
(PID.TID 0000.0001) %MON dynstat_eta_mean             =   8.4888073488007E-17
(PID.TID 0000.0001) %MON dynstat_eta_sd               =   6.3054324675639E-02
(PID.TID 0000.0001) %MON dynstat_eta_del2             =   1.3720165677187E-03
(PID.TID 0000.0001) %MON dynstat_uvel_max             =   1.9162099341052E-02
(PID.TID 0000.0001) %MON dynstat_uvel_min             =  -1.4728040841024E-02
(PID.TID 0000.0001) %MON dynstat_uvel_mean            =  -2.4562486565412E-13
(PID.TID 0000.0001) %MON dynstat_uvel_sd              =   3.5312890087402E-03
(PID.TID 0000.0001) %MON dynstat_uvel_del2            =   1.7594046808713E-05
(PID.TID 0000.0001) %MON dynstat_vvel_max             =   1.2942217076598E-02
(PID.TID 0000.0001) %MON dynstat_vvel_min             =  -7.8035504592985E-03
(PID.TID 0000.0001) %MON dynstat_vvel_mean            =   1.4574136233340E-11
(PID.TID 0000.0001) %MON dynstat_vvel_sd              =   1.3515625386602E-03
(PID.TID 0000.0001) %MON dynstat_vvel_del2            =   2.0381750253173E-05
(PID.TID 0000.0001) %MON dynstat_wvel_max             =   1.0003635863194E-03
(PID.TID 0000.0001) %MON dynstat_wvel_min             =  -8.5541919389749E-04
(PID.TID 0000.0001) %MON dynstat_wvel_mean            =   1.2437678333824E-11
(PID.TID 0000.0001) %MON dynstat_wvel_sd              =   8.6135456087896E-05
(PID.TID 0000.0001) %MON dynstat_wvel_del2            =   2.8933575724019E-06
(PID.TID 0000.0001) %MON dynstat_theta_max            =  -2.1000226975022E+00
(PID.TID 0000.0001) %MON dynstat_theta_min            =  -2.1975963462732E+00
(PID.TID 0000.0001) %MON dynstat_theta_mean           =  -2.1128678399657E+00
(PID.TID 0000.0001) %MON dynstat_theta_sd             =   1.5997081289577E-02
(PID.TID 0000.0001) %MON dynstat_theta_del2           =   3.5477326786387E-05
(PID.TID 0000.0001) %MON dynstat_salt_max             =   3.4499995165286E+01
(PID.TID 0000.0001) %MON dynstat_salt_min             =   3.4467369532838E+01
(PID.TID 0000.0001) %MON dynstat_salt_mean            =   3.4495091811666E+01
(PID.TID 0000.0001) %MON dynstat_salt_sd              =   6.5558211560023E-03
(PID.TID 0000.0001) %MON dynstat_salt_del2            =   3.0018868530241E-06
(PID.TID 0000.0001) %MON trAdv_CFL_u_max              =   6.6458224206810E-03
(PID.TID 0000.0001) %MON trAdv_CFL_v_max              =   1.2295106222768E-02
(PID.TID 0000.0001) %MON trAdv_CFL_w_max              =   7.2753715368681E-03
(PID.TID 0000.0001) %MON advcfl_uvel_max              =   6.6458224206810E-03
(PID.TID 0000.0001) %MON advcfl_vvel_max              =   1.2295106222768E-02
(PID.TID 0000.0001) %MON advcfl_wvel_max              =   7.2753715368681E-03
(PID.TID 0000.0001) %MON advcfl_W_hf_max              =   1.1432726700793E-02
(PID.TID 0000.0001) %MON pe_b_mean                    =   9.1538990841742E-05
(PID.TID 0000.0001) %MON ke_max                       =   1.4203397997148E-04
(PID.TID 0000.0001) %MON ke_mean                      =   6.7919214764955E-06
(PID.TID 0000.0001) %MON ke_vol                       =   1.8654725220387E+09
(PID.TID 0000.0001) %MON vort_r_min                   =  -2.0960358933922E-04
(PID.TID 0000.0001) %MON vort_r_max                   =   2.0212087360721E-04
(PID.TID 0000.0001) %MON vort_a_mean                  =   1.0000782634673E-04
(PID.TID 0000.0001) %MON vort_a_sd                    =   3.1500095286086E-05
(PID.TID 0000.0001) %MON vort_p_mean                  =   1.1991916022492E-04
(PID.TID 0000.0001) %MON vort_p_sd                    =   8.3892166818623E-05
(PID.TID 0000.0001) %MON surfExpan_theta_mean         =  -5.1450348176307E-13
(PID.TID 0000.0001) %MON surfExpan_salt_mean          =  -2.1939127104302E-13
(PID.TID 0000.0001) // =======================================================
(PID.TID 0000.0001) // End MONITOR dynamic field statistics
(PID.TID 0000.0001) // =======================================================
(PID.TID 0000.0001) // =======================================================
(PID.TID 0000.0001) // Begin MONITOR dynamic field statistics
(PID.TID 0000.0001) // =======================================================
(PID.TID 0000.0001) %MON time_tsnumber                =                 90720
(PID.TID 0000.0001) %MON time_secondsf                =   7.2576000000000E+06
(PID.TID 0000.0001) %MON dynstat_eta_max              =   2.1218449889674E-01
(PID.TID 0000.0001) %MON dynstat_eta_min              =  -1.3510456935663E-01
(PID.TID 0000.0001) %MON dynstat_eta_mean             =   9.4042669648479E-17
(PID.TID 0000.0001) %MON dynstat_eta_sd               =   6.3042451390483E-02
(PID.TID 0000.0001) %MON dynstat_eta_del2             =   1.3717811085105E-03
(PID.TID 0000.0001) %MON dynstat_uvel_max             =   1.9206836383843E-02
(PID.TID 0000.0001) %MON dynstat_uvel_min             =  -1.5835342234106E-02
(PID.TID 0000.0001) %MON dynstat_uvel_mean            =   6.1246089767510E-12
(PID.TID 0000.0001) %MON dynstat_uvel_sd              =   3.6103935087126E-03
(PID.TID 0000.0001) %MON dynstat_uvel_del2            =   1.7976014319535E-05
(PID.TID 0000.0001) %MON dynstat_vvel_max             =   1.3639540169167E-02
(PID.TID 0000.0001) %MON dynstat_vvel_min             =  -9.6007193995898E-03
(PID.TID 0000.0001) %MON dynstat_vvel_mean            =   1.9376580744172E-11
(PID.TID 0000.0001) %MON dynstat_vvel_sd              =   1.3173529680233E-03
(PID.TID 0000.0001) %MON dynstat_vvel_del2            =   2.0470248693977E-05
(PID.TID 0000.0001) %MON dynstat_wvel_max             =   9.4489062131878E-04
(PID.TID 0000.0001) %MON dynstat_wvel_min             =  -7.4976298948985E-04
(PID.TID 0000.0001) %MON dynstat_wvel_mean            =   1.2879362209400E-11
(PID.TID 0000.0001) %MON dynstat_wvel_sd              =   7.6681064278672E-05
(PID.TID 0000.0001) %MON dynstat_wvel_del2            =   2.4501668271765E-06
(PID.TID 0000.0001) %MON dynstat_theta_max            =  -2.1000191140900E+00
(PID.TID 0000.0001) %MON dynstat_theta_min            =  -2.1984534290596E+00
(PID.TID 0000.0001) %MON dynstat_theta_mean           =  -2.1132674572742E+00
(PID.TID 0000.0001) %MON dynstat_theta_sd             =   1.6348319525918E-02
(PID.TID 0000.0001) %MON dynstat_theta_del2           =   3.4756998445962E-05
(PID.TID 0000.0001) %MON dynstat_salt_max             =   3.4499994994413E+01
(PID.TID 0000.0001) %MON dynstat_salt_min             =   3.4467417403477E+01
(PID.TID 0000.0001) %MON dynstat_salt_mean            =   3.4494941752646E+01
(PID.TID 0000.0001) %MON dynstat_salt_sd              =   6.7037060124614E-03
(PID.TID 0000.0001) %MON dynstat_salt_del2            =   2.8918040122496E-06
(PID.TID 0000.0001) %MON trAdv_CFL_u_max              =   6.6613381758560E-03
(PID.TID 0000.0001) %MON trAdv_CFL_v_max              =   1.2957563160709E-02
(PID.TID 0000.0001) %MON trAdv_CFL_w_max              =   6.8719317914093E-03
(PID.TID 0000.0001) %MON advcfl_uvel_max              =   6.6613381758560E-03
(PID.TID 0000.0001) %MON advcfl_vvel_max              =   1.2957563160709E-02
(PID.TID 0000.0001) %MON advcfl_wvel_max              =   6.8719317914093E-03
(PID.TID 0000.0001) %MON advcfl_W_hf_max              =   1.0798749957929E-02
(PID.TID 0000.0001) %MON pe_b_mean                    =   9.1503298059748E-05
(PID.TID 0000.0001) %MON ke_max                       =   1.4821687022814E-04
(PID.TID 0000.0001) %MON ke_mean                      =   7.0217986986547E-06
(PID.TID 0000.0001) %MON ke_vol                       =   1.8654725220387E+09
(PID.TID 0000.0001) %MON vort_r_min                   =  -2.0798836076425E-04
(PID.TID 0000.0001) %MON vort_r_max                   =   2.1512504603571E-04
(PID.TID 0000.0001) %MON vort_a_mean                  =   1.0000782634673E-04
(PID.TID 0000.0001) %MON vort_a_sd                    =   3.2085359106308E-05
(PID.TID 0000.0001) %MON vort_p_mean                  =   1.1991916022492E-04
(PID.TID 0000.0001) %MON vort_p_sd                    =   8.2986325488752E-05
(PID.TID 0000.0001) %MON surfExpan_theta_mean         =  -5.2240583058455E-13
(PID.TID 0000.0001) %MON surfExpan_salt_mean          =  -2.2700906924188E-13
(PID.TID 0000.0001) // =======================================================
(PID.TID 0000.0001) // End MONITOR dynamic field statistics
(PID.TID 0000.0001) // =======================================================
(PID.TID 0000.0001) // =======================================================
(PID.TID 0000.0001) // Begin MONITOR dynamic field statistics
(PID.TID 0000.0001) // =======================================================
(PID.TID 0000.0001) %MON time_tsnumber                =                 93960
(PID.TID 0000.0001) %MON time_secondsf                =   7.5168000000000E+06
(PID.TID 0000.0001) %MON dynstat_eta_max              =   2.1216406094831E-01
(PID.TID 0000.0001) %MON dynstat_eta_min              =  -1.3507990151096E-01
(PID.TID 0000.0001) %MON dynstat_eta_mean             =   1.0014573375546E-16
(PID.TID 0000.0001) %MON dynstat_eta_sd               =   6.3029952464414E-02
(PID.TID 0000.0001) %MON dynstat_eta_del2             =   1.3715394646987E-03
(PID.TID 0000.0001) %MON dynstat_uvel_max             =   1.9153656647052E-02
(PID.TID 0000.0001) %MON dynstat_uvel_min             =  -1.7474507931890E-02
(PID.TID 0000.0001) %MON dynstat_uvel_mean            =   1.2548102885061E-11
(PID.TID 0000.0001) %MON dynstat_uvel_sd              =   3.6445189316500E-03
(PID.TID 0000.0001) %MON dynstat_uvel_del2            =   1.7028078762882E-05
(PID.TID 0000.0001) %MON dynstat_vvel_max             =   1.4574275642532E-02
(PID.TID 0000.0001) %MON dynstat_vvel_min             =  -1.0780432555054E-02
(PID.TID 0000.0001) %MON dynstat_vvel_mean            =   1.7450897233915E-11
(PID.TID 0000.0001) %MON dynstat_vvel_sd              =   1.2657525108955E-03
(PID.TID 0000.0001) %MON dynstat_vvel_del2            =   1.9741355732881E-05
(PID.TID 0000.0001) %MON dynstat_wvel_max             =   9.6108567910671E-04
(PID.TID 0000.0001) %MON dynstat_wvel_min             =  -7.5570868786870E-04
(PID.TID 0000.0001) %MON dynstat_wvel_mean            =   1.3474408605886E-11
(PID.TID 0000.0001) %MON dynstat_wvel_sd              =   7.0818551285818E-05
(PID.TID 0000.0001) %MON dynstat_wvel_del2            =   2.0825573889517E-06
(PID.TID 0000.0001) %MON dynstat_theta_max            =  -2.1000245099386E+00
(PID.TID 0000.0001) %MON dynstat_theta_min            =  -2.1994154822647E+00
(PID.TID 0000.0001) %MON dynstat_theta_mean           =  -2.1136743021862E+00
(PID.TID 0000.0001) %MON dynstat_theta_sd             =   1.6723470522938E-02
(PID.TID 0000.0001) %MON dynstat_theta_del2           =   3.3992464771033E-05
(PID.TID 0000.0001) %MON dynstat_salt_max             =   3.4499994808348E+01
(PID.TID 0000.0001) %MON dynstat_salt_min             =   3.4467393237254E+01
(PID.TID 0000.0001) %MON dynstat_salt_mean            =   3.4494788715313E+01
(PID.TID 0000.0001) %MON dynstat_salt_sd              =   6.8594203949346E-03
(PID.TID 0000.0001) %MON dynstat_salt_del2            =   2.7639854221705E-06
(PID.TID 0000.0001) %MON trAdv_CFL_u_max              =   6.6428943153581E-03
(PID.TID 0000.0001) %MON trAdv_CFL_v_max              =   1.3845561860406E-02
(PID.TID 0000.0001) %MON trAdv_CFL_w_max              =   6.9897140298670E-03
(PID.TID 0000.0001) %MON advcfl_uvel_max              =   6.6428943153581E-03
(PID.TID 0000.0001) %MON advcfl_vvel_max              =   1.3845561860406E-02
(PID.TID 0000.0001) %MON advcfl_wvel_max              =   6.9897140298670E-03
(PID.TID 0000.0001) %MON advcfl_W_hf_max              =   1.0983836332648E-02
(PID.TID 0000.0001) %MON pe_b_mean                    =   9.1465963750750E-05
(PID.TID 0000.0001) %MON ke_max                       =   1.5722639419931E-04
(PID.TID 0000.0001) %MON ke_mean                      =   7.0808345272668E-06
(PID.TID 0000.0001) %MON ke_vol                       =   1.8654725220387E+09
(PID.TID 0000.0001) %MON vort_r_min                   =  -2.0750978169120E-04
(PID.TID 0000.0001) %MON vort_r_max                   =   2.2502748578925E-04
(PID.TID 0000.0001) %MON vort_a_mean                  =   1.0000782634673E-04
(PID.TID 0000.0001) %MON vort_a_sd                    =   3.2620689245859E-05
(PID.TID 0000.0001) %MON vort_p_mean                  =   1.1991916022492E-04
(PID.TID 0000.0001) %MON vort_p_sd                    =   8.3182452539705E-05
(PID.TID 0000.0001) %MON surfExpan_theta_mean         =  -5.5183185382076E-13
(PID.TID 0000.0001) %MON surfExpan_salt_mean          =  -2.3345159592943E-13
(PID.TID 0000.0001) // =======================================================
(PID.TID 0000.0001) // End MONITOR dynamic field statistics
(PID.TID 0000.0001) // =======================================================
(PID.TID 0000.0001) // =======================================================
(PID.TID 0000.0001) // Begin MONITOR dynamic field statistics
(PID.TID 0000.0001) // =======================================================
(PID.TID 0000.0001) %MON time_tsnumber                =                 97200
(PID.TID 0000.0001) %MON time_secondsf                =   7.7760000000000E+06
(PID.TID 0000.0001) %MON dynstat_eta_max              =   2.1214419846116E-01
(PID.TID 0000.0001) %MON dynstat_eta_min              =  -1.3505087409253E-01
(PID.TID 0000.0001) %MON dynstat_eta_mean             =   1.0513914984299E-16
(PID.TID 0000.0001) %MON dynstat_eta_sd               =   6.3016528389550E-02
(PID.TID 0000.0001) %MON dynstat_eta_del2             =   1.3712935969994E-03
(PID.TID 0000.0001) %MON dynstat_uvel_max             =   2.0433229857637E-02
(PID.TID 0000.0001) %MON dynstat_uvel_min             =  -1.7485292266819E-02
(PID.TID 0000.0001) %MON dynstat_uvel_mean            =  -3.6532496145079E-11
(PID.TID 0000.0001) %MON dynstat_uvel_sd              =   3.5844906683623E-03
(PID.TID 0000.0001) %MON dynstat_uvel_del2            =   1.7203822261533E-05
(PID.TID 0000.0001) %MON dynstat_vvel_max             =   1.6136269223426E-02
(PID.TID 0000.0001) %MON dynstat_vvel_min             =  -1.0568918320925E-02
(PID.TID 0000.0001) %MON dynstat_vvel_mean            =   1.2739259824805E-11
(PID.TID 0000.0001) %MON dynstat_vvel_sd              =   1.2651185243420E-03
(PID.TID 0000.0001) %MON dynstat_vvel_del2            =   1.9046809701308E-05
(PID.TID 0000.0001) %MON dynstat_wvel_max             =   1.1951442143837E-03
(PID.TID 0000.0001) %MON dynstat_wvel_min             =  -7.9927050101762E-04
(PID.TID 0000.0001) %MON dynstat_wvel_mean            =   1.4632857860239E-11
(PID.TID 0000.0001) %MON dynstat_wvel_sd              =   7.3667857090966E-05
(PID.TID 0000.0001) %MON dynstat_wvel_del2            =   2.1324823854089E-06
(PID.TID 0000.0001) %MON dynstat_theta_max            =  -2.1000250211001E+00
(PID.TID 0000.0001) %MON dynstat_theta_min            =  -2.2006068476845E+00
(PID.TID 0000.0001) %MON dynstat_theta_mean           =  -2.1140790238593E+00
(PID.TID 0000.0001) %MON dynstat_theta_sd             =   1.7108644562441E-02
(PID.TID 0000.0001) %MON dynstat_theta_del2           =   3.5130438281236E-05
(PID.TID 0000.0001) %MON dynstat_salt_max             =   3.4499994611117E+01
(PID.TID 0000.0001) %MON dynstat_salt_min             =   3.4467145829773E+01
(PID.TID 0000.0001) %MON dynstat_salt_mean            =   3.4494636552335E+01
(PID.TID 0000.0001) %MON dynstat_salt_sd              =   7.0177181125462E-03
(PID.TID 0000.0001) %MON dynstat_salt_del2            =   2.8085206378165E-06
(PID.TID 0000.0001) %MON trAdv_CFL_u_max              =   7.0866774406021E-03
(PID.TID 0000.0001) %MON trAdv_CFL_v_max              =   1.5329455762255E-02
(PID.TID 0000.0001) %MON trAdv_CFL_w_max              =   8.6919579227909E-03
(PID.TID 0000.0001) %MON advcfl_uvel_max              =   7.0866774406021E-03
(PID.TID 0000.0001) %MON advcfl_vvel_max              =   1.5329455762255E-02
(PID.TID 0000.0001) %MON advcfl_wvel_max              =   8.6919579227909E-03
(PID.TID 0000.0001) %MON advcfl_W_hf_max              =   1.2512838780613E-02
(PID.TID 0000.0001) %MON pe_b_mean                    =   9.1426279183599E-05
(PID.TID 0000.0001) %MON ke_max                       =   1.8349934269786E-04
(PID.TID 0000.0001) %MON ke_mean                      =   6.8721860224504E-06
(PID.TID 0000.0001) %MON ke_vol                       =   1.8654725220387E+09
(PID.TID 0000.0001) %MON vort_r_min                   =  -2.1235122064441E-04
(PID.TID 0000.0001) %MON vort_r_max                   =   2.3688213973687E-04
(PID.TID 0000.0001) %MON vort_a_mean                  =   1.0000782634673E-04
(PID.TID 0000.0001) %MON vort_a_sd                    =   3.2569355049745E-05
(PID.TID 0000.0001) %MON vort_p_mean                  =   1.1991916022492E-04
(PID.TID 0000.0001) %MON vort_p_sd                    =   8.3629610607067E-05
(PID.TID 0000.0001) %MON surfExpan_theta_mean         =  -5.6126982735694E-13
(PID.TID 0000.0001) %MON surfExpan_salt_mean          =  -2.3677693281320E-13
(PID.TID 0000.0001) // =======================================================
(PID.TID 0000.0001) // End MONITOR dynamic field statistics
(PID.TID 0000.0001) // =======================================================
(PID.TID 0000.0001) %CHECKPOINT     98280 0000098280
(PID.TID 0000.0001) // =======================================================
(PID.TID 0000.0001) // Begin MONITOR dynamic field statistics
(PID.TID 0000.0001) // =======================================================
(PID.TID 0000.0001) %MON time_tsnumber                =                100440
(PID.TID 0000.0001) %MON time_secondsf                =   8.0352000000000E+06
(PID.TID 0000.0001) %MON dynstat_eta_max              =   2.1212387686541E-01
(PID.TID 0000.0001) %MON dynstat_eta_min              =  -1.3502175394585E-01
(PID.TID 0000.0001) %MON dynstat_eta_mean             =   1.2760952223687E-16
(PID.TID 0000.0001) %MON dynstat_eta_sd               =   6.3002401678055E-02
(PID.TID 0000.0001) %MON dynstat_eta_del2             =   1.3710497362436E-03
(PID.TID 0000.0001) %MON dynstat_uvel_max             =   2.0370530514138E-02
(PID.TID 0000.0001) %MON dynstat_uvel_min             =  -1.7296195235269E-02
(PID.TID 0000.0001) %MON dynstat_uvel_mean            =  -2.4547378042818E-11
(PID.TID 0000.0001) %MON dynstat_uvel_sd              =   3.5685882327982E-03
(PID.TID 0000.0001) %MON dynstat_uvel_del2            =   1.6726068512265E-05
(PID.TID 0000.0001) %MON dynstat_vvel_max             =   1.5575028670378E-02
(PID.TID 0000.0001) %MON dynstat_vvel_min             =  -9.6602645157489E-03
(PID.TID 0000.0001) %MON dynstat_vvel_mean            =   1.9667119744312E-11
(PID.TID 0000.0001) %MON dynstat_vvel_sd              =   1.2494508775674E-03
(PID.TID 0000.0001) %MON dynstat_vvel_del2            =   1.8115445250898E-05
(PID.TID 0000.0001) %MON dynstat_wvel_max             =   1.2111126902644E-03
(PID.TID 0000.0001) %MON dynstat_wvel_min             =  -7.2104824346004E-04
(PID.TID 0000.0001) %MON dynstat_wvel_mean            =   1.5025750758202E-11
(PID.TID 0000.0001) %MON dynstat_wvel_sd              =   7.2296156069580E-05
(PID.TID 0000.0001) %MON dynstat_wvel_del2            =   1.9639224180311E-06
(PID.TID 0000.0001) %MON dynstat_theta_max            =  -2.1000257973127E+00
(PID.TID 0000.0001) %MON dynstat_theta_min            =  -2.1976830692549E+00
(PID.TID 0000.0001) %MON dynstat_theta_mean           =  -2.1144746971071E+00
(PID.TID 0000.0001) %MON dynstat_theta_sd             =   1.7478841368250E-02
(PID.TID 0000.0001) %MON dynstat_theta_del2           =   3.0806144823280E-05
(PID.TID 0000.0001) %MON dynstat_salt_max             =   3.4499994394544E+01
(PID.TID 0000.0001) %MON dynstat_salt_min             =   3.4468644222441E+01
(PID.TID 0000.0001) %MON dynstat_salt_mean            =   3.4494488116519E+01
(PID.TID 0000.0001) %MON dynstat_salt_sd              =   7.1723192185160E-03
(PID.TID 0000.0001) %MON dynstat_salt_del2            =   2.7877717175077E-06
(PID.TID 0000.0001) %MON trAdv_CFL_u_max              =   7.0649319786164E-03
(PID.TID 0000.0001) %MON trAdv_CFL_v_max              =   1.4796277236859E-02
(PID.TID 0000.0001) %MON trAdv_CFL_w_max              =   8.8080922928316E-03
(PID.TID 0000.0001) %MON advcfl_uvel_max              =   7.0649319786164E-03
(PID.TID 0000.0001) %MON advcfl_vvel_max              =   1.4796277236859E-02
(PID.TID 0000.0001) %MON advcfl_wvel_max              =   8.8080922928316E-03
(PID.TID 0000.0001) %MON advcfl_W_hf_max              =   1.2338674409081E-02
(PID.TID 0000.0001) %MON pe_b_mean                    =   9.1385038614382E-05
(PID.TID 0000.0001) %MON ke_max                       =   1.7113807590051E-04
(PID.TID 0000.0001) %MON ke_mean                      =   6.8000656129749E-06
(PID.TID 0000.0001) %MON ke_vol                       =   1.8654725220387E+09
(PID.TID 0000.0001) %MON vort_r_min                   =  -2.0539231841882E-04
(PID.TID 0000.0001) %MON vort_r_max                   =   2.2156896298597E-04
(PID.TID 0000.0001) %MON vort_a_mean                  =   1.0000782634673E-04
(PID.TID 0000.0001) %MON vort_a_sd                    =   3.2702922386137E-05
(PID.TID 0000.0001) %MON vort_p_mean                  =   1.1991916022492E-04
(PID.TID 0000.0001) %MON vort_p_sd                    =   8.4841178716412E-05
(PID.TID 0000.0001) %MON surfExpan_theta_mean         =  -5.5429806267357E-13
(PID.TID 0000.0001) %MON surfExpan_salt_mean          =  -2.4304604532069E-13
(PID.TID 0000.0001) // =======================================================
(PID.TID 0000.0001) // End MONITOR dynamic field statistics
(PID.TID 0000.0001) // =======================================================
(PID.TID 0000.0001) // =======================================================
(PID.TID 0000.0001) // Begin MONITOR dynamic field statistics
(PID.TID 0000.0001) // =======================================================
(PID.TID 0000.0001) %MON time_tsnumber                =                103680
(PID.TID 0000.0001) %MON time_secondsf                =   8.2944000000000E+06
(PID.TID 0000.0001) %MON dynstat_eta_max              =   2.1210416532377E-01
(PID.TID 0000.0001) %MON dynstat_eta_min              =  -1.3498360035782E-01
(PID.TID 0000.0001) %MON dynstat_eta_mean             =   1.2511281419311E-16
(PID.TID 0000.0001) %MON dynstat_eta_sd               =   6.2989019452346E-02
(PID.TID 0000.0001) %MON dynstat_eta_del2             =   1.3708368885902E-03
(PID.TID 0000.0001) %MON dynstat_uvel_max             =   1.5772921202985E-02
(PID.TID 0000.0001) %MON dynstat_uvel_min             =  -1.6651305888245E-02
(PID.TID 0000.0001) %MON dynstat_uvel_mean            =   6.9379439092176E-11
(PID.TID 0000.0001) %MON dynstat_uvel_sd              =   3.4519797694362E-03
(PID.TID 0000.0001) %MON dynstat_uvel_del2            =   1.6147139773965E-05
(PID.TID 0000.0001) %MON dynstat_vvel_max             =   1.2171567380171E-02
(PID.TID 0000.0001) %MON dynstat_vvel_min             =  -7.2654703551557E-03
(PID.TID 0000.0001) %MON dynstat_vvel_mean            =   2.3579232970882E-11
(PID.TID 0000.0001) %MON dynstat_vvel_sd              =   1.1649073782840E-03
(PID.TID 0000.0001) %MON dynstat_vvel_del2            =   1.6809391950961E-05
(PID.TID 0000.0001) %MON dynstat_wvel_max             =   1.0656905542206E-03
(PID.TID 0000.0001) %MON dynstat_wvel_min             =  -7.1003886817784E-04
(PID.TID 0000.0001) %MON dynstat_wvel_mean            =   1.2702487866661E-11
(PID.TID 0000.0001) %MON dynstat_wvel_sd              =   6.5659834717610E-05
(PID.TID 0000.0001) %MON dynstat_wvel_del2            =   1.7769550553543E-06
(PID.TID 0000.0001) %MON dynstat_theta_max            =  -2.1000269147579E+00
(PID.TID 0000.0001) %MON dynstat_theta_min            =  -2.1994845937053E+00
(PID.TID 0000.0001) %MON dynstat_theta_mean           =  -2.1148531084927E+00
(PID.TID 0000.0001) %MON dynstat_theta_sd             =   1.7834982698525E-02
(PID.TID 0000.0001) %MON dynstat_theta_del2           =   2.9997077509416E-05
(PID.TID 0000.0001) %MON dynstat_salt_max             =   3.4499994023296E+01
(PID.TID 0000.0001) %MON dynstat_salt_min             =   3.4469132427026E+01
(PID.TID 0000.0001) %MON dynstat_salt_mean            =   3.4494346791782E+01
(PID.TID 0000.0001) %MON dynstat_salt_sd              =   7.3160617761604E-03
(PID.TID 0000.0001) %MON dynstat_salt_del2            =   2.6558015187882E-06
(PID.TID 0000.0001) %MON trAdv_CFL_u_max              =   5.7750260050390E-03
(PID.TID 0000.0001) %MON trAdv_CFL_v_max              =   1.1562989011162E-02
(PID.TID 0000.0001) %MON trAdv_CFL_w_max              =   7.7504767579682E-03
(PID.TID 0000.0001) %MON advcfl_uvel_max              =   5.7750260050390E-03
(PID.TID 0000.0001) %MON advcfl_vvel_max              =   1.1562989011162E-02
(PID.TID 0000.0001) %MON advcfl_wvel_max              =   7.7504767579682E-03
(PID.TID 0000.0001) %MON advcfl_W_hf_max              =   9.3417971463093E-03
(PID.TID 0000.0001) %MON pe_b_mean                    =   9.1346048271478E-05
(PID.TID 0000.0001) %MON ke_max                       =   1.3706344160914E-04
(PID.TID 0000.0001) %MON ke_mean                      =   6.3165314517132E-06
(PID.TID 0000.0001) %MON ke_vol                       =   1.8654725220387E+09
(PID.TID 0000.0001) %MON vort_r_min                   =  -1.9773425742291E-04
(PID.TID 0000.0001) %MON vort_r_max                   =   1.7252984402856E-04
(PID.TID 0000.0001) %MON vort_a_mean                  =   1.0000782634673E-04
(PID.TID 0000.0001) %MON vort_a_sd                    =   3.1562927569448E-05
(PID.TID 0000.0001) %MON vort_p_mean                  =   1.1991916022492E-04
(PID.TID 0000.0001) %MON vort_p_sd                    =   8.3582334466653E-05
(PID.TID 0000.0001) %MON surfExpan_theta_mean         =  -5.1931904327265E-13
(PID.TID 0000.0001) %MON surfExpan_salt_mean          =  -2.2420250092867E-13
(PID.TID 0000.0001) // =======================================================
(PID.TID 0000.0001) // End MONITOR dynamic field statistics
(PID.TID 0000.0001) // =======================================================
(PID.TID 0000.0001) // =======================================================
(PID.TID 0000.0001) // Begin MONITOR dynamic field statistics
(PID.TID 0000.0001) // =======================================================
(PID.TID 0000.0001) %MON time_tsnumber                =                106920
(PID.TID 0000.0001) %MON time_secondsf                =   8.5536000000000E+06
(PID.TID 0000.0001) %MON dynstat_eta_max              =   2.1208677669712E-01
(PID.TID 0000.0001) %MON dynstat_eta_min              =  -1.3495469104926E-01
(PID.TID 0000.0001) %MON dynstat_eta_mean             =   1.2095163412017E-16
(PID.TID 0000.0001) %MON dynstat_eta_sd               =   6.2977475535394E-02
(PID.TID 0000.0001) %MON dynstat_eta_del2             =   1.3706566422159E-03
(PID.TID 0000.0001) %MON dynstat_uvel_max             =   1.3092000015090E-02
(PID.TID 0000.0001) %MON dynstat_uvel_min             =  -1.6021842650944E-02
(PID.TID 0000.0001) %MON dynstat_uvel_mean            =   2.2317436417408E-11
(PID.TID 0000.0001) %MON dynstat_uvel_sd              =   3.3080085467251E-03
(PID.TID 0000.0001) %MON dynstat_uvel_del2            =   1.5160537069493E-05
(PID.TID 0000.0001) %MON dynstat_vvel_max             =   1.0420603376264E-02
(PID.TID 0000.0001) %MON dynstat_vvel_min             =  -6.3566014592543E-03
(PID.TID 0000.0001) %MON dynstat_vvel_mean            =   2.1374205603545E-11
(PID.TID 0000.0001) %MON dynstat_vvel_sd              =   1.1056008242543E-03
(PID.TID 0000.0001) %MON dynstat_vvel_del2            =   1.5653928683117E-05
(PID.TID 0000.0001) %MON dynstat_wvel_max             =   1.0698807651937E-03
(PID.TID 0000.0001) %MON dynstat_wvel_min             =  -8.1257741997892E-04
(PID.TID 0000.0001) %MON dynstat_wvel_mean            =   1.1057754231208E-11
(PID.TID 0000.0001) %MON dynstat_wvel_sd              =   6.3103671431672E-05
(PID.TID 0000.0001) %MON dynstat_wvel_del2            =   1.7489291734200E-06
(PID.TID 0000.0001) %MON dynstat_theta_max            =  -2.1000300314778E+00
(PID.TID 0000.0001) %MON dynstat_theta_min            =  -2.2013636856229E+00
(PID.TID 0000.0001) %MON dynstat_theta_mean           =  -2.1152068734816E+00
(PID.TID 0000.0001) %MON dynstat_theta_sd             =   1.8168080254029E-02
(PID.TID 0000.0001) %MON dynstat_theta_del2           =   3.0976420698995E-05
(PID.TID 0000.0001) %MON dynstat_salt_max             =   3.4499993227520E+01
(PID.TID 0000.0001) %MON dynstat_salt_min             =   3.4468794934901E+01
(PID.TID 0000.0001) %MON dynstat_salt_mean            =   3.4494215621198E+01
(PID.TID 0000.0001) %MON dynstat_salt_sd              =   7.4455445376852E-03
(PID.TID 0000.0001) %MON dynstat_salt_del2            =   2.5535928059835E-06
(PID.TID 0000.0001) %MON trAdv_CFL_u_max              =   5.5567148053634E-03
(PID.TID 0000.0001) %MON trAdv_CFL_v_max              =   9.8995732074510E-03
(PID.TID 0000.0001) %MON trAdv_CFL_w_max              =   7.7809510195906E-03
(PID.TID 0000.0001) %MON advcfl_uvel_max              =   5.5567148053634E-03
(PID.TID 0000.0001) %MON advcfl_vvel_max              =   9.8995732074510E-03
(PID.TID 0000.0001) %MON advcfl_wvel_max              =   7.7809510195906E-03
(PID.TID 0000.0001) %MON advcfl_W_hf_max              =   7.7809510195906E-03
(PID.TID 0000.0001) %MON pe_b_mean                    =   9.1312284629874E-05
(PID.TID 0000.0001) %MON ke_max                       =   1.2697866866574E-04
(PID.TID 0000.0001) %MON ke_mean                      =   5.7899819698201E-06
(PID.TID 0000.0001) %MON ke_vol                       =   1.8654725220387E+09
(PID.TID 0000.0001) %MON vort_r_min                   =  -1.9025938147997E-04
(PID.TID 0000.0001) %MON vort_r_max                   =   1.4342882589841E-04
(PID.TID 0000.0001) %MON vort_a_mean                  =   1.0000782634673E-04
(PID.TID 0000.0001) %MON vort_a_sd                    =   2.9876294222616E-05
(PID.TID 0000.0001) %MON vort_p_mean                  =   1.1991916022492E-04
(PID.TID 0000.0001) %MON vort_p_sd                    =   8.2212715098214E-05
(PID.TID 0000.0001) %MON surfExpan_theta_mean         =  -4.4153153276593E-13
(PID.TID 0000.0001) %MON surfExpan_salt_mean          =  -1.9388611841885E-13
(PID.TID 0000.0001) // =======================================================
(PID.TID 0000.0001) // End MONITOR dynamic field statistics
(PID.TID 0000.0001) // =======================================================
(PID.TID 0000.0001) // =======================================================
(PID.TID 0000.0001) // Begin MONITOR dynamic field statistics
(PID.TID 0000.0001) // =======================================================
(PID.TID 0000.0001) %MON time_tsnumber                =                110160
(PID.TID 0000.0001) %MON time_secondsf                =   8.8128000000000E+06
(PID.TID 0000.0001) %MON dynstat_eta_max              =   2.1207028865688E-01
(PID.TID 0000.0001) %MON dynstat_eta_min              =  -1.3493052589515E-01
(PID.TID 0000.0001) %MON dynstat_eta_mean             =   1.3093846629523E-16
(PID.TID 0000.0001) %MON dynstat_eta_sd               =   6.2967167521828E-02
(PID.TID 0000.0001) %MON dynstat_eta_del2             =   1.3704873555597E-03
(PID.TID 0000.0001) %MON dynstat_uvel_max             =   1.3330613027877E-02
(PID.TID 0000.0001) %MON dynstat_uvel_min             =  -1.4772049817757E-02
(PID.TID 0000.0001) %MON dynstat_uvel_mean            =  -8.7562667895781E-11
(PID.TID 0000.0001) %MON dynstat_uvel_sd              =   3.2244450560090E-03
(PID.TID 0000.0001) %MON dynstat_uvel_del2            =   1.4244598228172E-05
(PID.TID 0000.0001) %MON dynstat_vvel_max             =   9.6316337243785E-03
(PID.TID 0000.0001) %MON dynstat_vvel_min             =  -5.9041658811061E-03
(PID.TID 0000.0001) %MON dynstat_vvel_mean            =   2.1491695788397E-11
(PID.TID 0000.0001) %MON dynstat_vvel_sd              =   1.0985804405312E-03
(PID.TID 0000.0001) %MON dynstat_vvel_del2            =   1.4962784385667E-05
(PID.TID 0000.0001) %MON dynstat_wvel_max             =   1.0743927969198E-03
(PID.TID 0000.0001) %MON dynstat_wvel_min             =  -6.7550589127262E-04
(PID.TID 0000.0001) %MON dynstat_wvel_mean            =   1.0671013240637E-11
(PID.TID 0000.0001) %MON dynstat_wvel_sd              =   5.8135969682688E-05
(PID.TID 0000.0001) %MON dynstat_wvel_del2            =   1.6320050498232E-06
(PID.TID 0000.0001) %MON dynstat_theta_max            =  -2.1000364268433E+00
(PID.TID 0000.0001) %MON dynstat_theta_min            =  -2.2028554269120E+00
(PID.TID 0000.0001) %MON dynstat_theta_mean           =  -2.1155444272814E+00
(PID.TID 0000.0001) %MON dynstat_theta_sd             =   1.8484875914626E-02
(PID.TID 0000.0001) %MON dynstat_theta_del2           =   3.0869461330735E-05
(PID.TID 0000.0001) %MON dynstat_salt_max             =   3.4499992059258E+01
(PID.TID 0000.0001) %MON dynstat_salt_min             =   3.4468526926332E+01
(PID.TID 0000.0001) %MON dynstat_salt_mean            =   3.4494091130297E+01
(PID.TID 0000.0001) %MON dynstat_salt_sd              =   7.5637989560360E-03
(PID.TID 0000.0001) %MON dynstat_salt_del2            =   2.4934972146637E-06
(PID.TID 0000.0001) %MON trAdv_CFL_u_max              =   5.1232601465510E-03
(PID.TID 0000.0001) %MON trAdv_CFL_v_max              =   9.1500520381596E-03
(PID.TID 0000.0001) %MON trAdv_CFL_w_max              =   7.8137657957804E-03
(PID.TID 0000.0001) %MON advcfl_uvel_max              =   5.1232601465510E-03
(PID.TID 0000.0001) %MON advcfl_vvel_max              =   9.1500520381596E-03
(PID.TID 0000.0001) %MON advcfl_wvel_max              =   7.8137657957804E-03
(PID.TID 0000.0001) %MON advcfl_W_hf_max              =   8.1648105996740E-03
(PID.TID 0000.0001) %MON pe_b_mean                    =   9.1281828918498E-05
(PID.TID 0000.0001) %MON ke_max                       =   1.0794623671804E-04
(PID.TID 0000.0001) %MON ke_mean                      =   5.5214994882159E-06
(PID.TID 0000.0001) %MON ke_vol                       =   1.8654725220387E+09
(PID.TID 0000.0001) %MON vort_r_min                   =  -1.7541809158586E-04
(PID.TID 0000.0001) %MON vort_r_max                   =   1.4692508142546E-04
(PID.TID 0000.0001) %MON vort_a_mean                  =   1.0000782634673E-04
(PID.TID 0000.0001) %MON vort_a_sd                    =   2.8478542357784E-05
(PID.TID 0000.0001) %MON vort_p_mean                  =   1.1991916022492E-04
(PID.TID 0000.0001) %MON vort_p_sd                    =   8.0078774995503E-05
(PID.TID 0000.0001) %MON surfExpan_theta_mean         =  -4.1824888348619E-13
(PID.TID 0000.0001) %MON surfExpan_salt_mean          =  -1.8946755026824E-13
(PID.TID 0000.0001) // =======================================================
(PID.TID 0000.0001) // End MONITOR dynamic field statistics
(PID.TID 0000.0001) // =======================================================
(PID.TID 0000.0001) // =======================================================
(PID.TID 0000.0001) // Begin MONITOR dynamic field statistics
(PID.TID 0000.0001) // =======================================================
(PID.TID 0000.0001) %MON time_tsnumber                =                113400
(PID.TID 0000.0001) %MON time_secondsf                =   9.0720000000000E+06
(PID.TID 0000.0001) %MON dynstat_eta_max              =   2.1205478419488E-01
(PID.TID 0000.0001) %MON dynstat_eta_min              =  -1.3491313761991E-01
(PID.TID 0000.0001) %MON dynstat_eta_mean             =   1.2871917025632E-16
(PID.TID 0000.0001) %MON dynstat_eta_sd               =   6.2957831216117E-02
(PID.TID 0000.0001) %MON dynstat_eta_del2             =   1.3703193983510E-03
(PID.TID 0000.0001) %MON dynstat_uvel_max             =   1.2685349444259E-02
(PID.TID 0000.0001) %MON dynstat_uvel_min             =  -1.4242736326382E-02
(PID.TID 0000.0001) %MON dynstat_uvel_mean            =  -1.0605143115602E-10
(PID.TID 0000.0001) %MON dynstat_uvel_sd              =   3.1436979123306E-03
(PID.TID 0000.0001) %MON dynstat_uvel_del2            =   1.3590660605348E-05
(PID.TID 0000.0001) %MON dynstat_vvel_max             =   8.8805621388180E-03
(PID.TID 0000.0001) %MON dynstat_vvel_min             =  -5.4061245518297E-03
(PID.TID 0000.0001) %MON dynstat_vvel_mean            =   1.3988630529990E-11
(PID.TID 0000.0001) %MON dynstat_vvel_sd              =   1.1242905507375E-03
(PID.TID 0000.0001) %MON dynstat_vvel_del2            =   1.4153598487595E-05
(PID.TID 0000.0001) %MON dynstat_wvel_max             =   9.8183846981791E-04
(PID.TID 0000.0001) %MON dynstat_wvel_min             =  -6.9089466560480E-04
(PID.TID 0000.0001) %MON dynstat_wvel_mean            =   1.0059547065332E-11
(PID.TID 0000.0001) %MON dynstat_wvel_sd              =   5.4713848006327E-05
(PID.TID 0000.0001) %MON dynstat_wvel_del2            =   1.5672425559002E-06
(PID.TID 0000.0001) %MON dynstat_theta_max            =  -2.1000419273271E+00
(PID.TID 0000.0001) %MON dynstat_theta_min            =  -2.2047521445673E+00
(PID.TID 0000.0001) %MON dynstat_theta_mean           =  -2.1158649777052E+00
(PID.TID 0000.0001) %MON dynstat_theta_sd             =   1.8778781156995E-02
(PID.TID 0000.0001) %MON dynstat_theta_del2           =   3.0836372413879E-05
(PID.TID 0000.0001) %MON dynstat_salt_max             =   3.4499991202558E+01
(PID.TID 0000.0001) %MON dynstat_salt_min             =   3.4468128894432E+01
(PID.TID 0000.0001) %MON dynstat_salt_mean            =   3.4493973644584E+01
(PID.TID 0000.0001) %MON dynstat_salt_sd              =   7.6737399023262E-03
(PID.TID 0000.0001) %MON dynstat_salt_del2            =   2.4621191770013E-06
(PID.TID 0000.0001) %MON trAdv_CFL_u_max              =   4.9396830026306E-03
(PID.TID 0000.0001) %MON trAdv_CFL_v_max              =   8.4365340318771E-03
(PID.TID 0000.0001) %MON trAdv_CFL_w_max              =   7.1406434168575E-03
(PID.TID 0000.0001) %MON advcfl_uvel_max              =   4.9396830026306E-03
(PID.TID 0000.0001) %MON advcfl_vvel_max              =   8.4365340318771E-03
(PID.TID 0000.0001) %MON advcfl_wvel_max              =   7.1406434168575E-03
(PID.TID 0000.0001) %MON advcfl_W_hf_max              =   7.7625133220166E-03
(PID.TID 0000.0001) %MON pe_b_mean                    =   9.1253844330784E-05
(PID.TID 0000.0001) %MON ke_max                       =   9.8236658091431E-05
(PID.TID 0000.0001) %MON ke_mean                      =   5.3006606253750E-06
(PID.TID 0000.0001) %MON ke_vol                       =   1.8654725220387E+09
(PID.TID 0000.0001) %MON vort_r_min                   =  -1.6913249387578E-04
(PID.TID 0000.0001) %MON vort_r_max                   =   1.3623415932777E-04
(PID.TID 0000.0001) %MON vort_a_mean                  =   1.0000782634673E-04
(PID.TID 0000.0001) %MON vort_a_sd                    =   2.7560206216310E-05
(PID.TID 0000.0001) %MON vort_p_mean                  =   1.1991916022492E-04
(PID.TID 0000.0001) %MON vort_p_sd                    =   7.9043099891984E-05
(PID.TID 0000.0001) %MON surfExpan_theta_mean         =  -3.9870504293177E-13
(PID.TID 0000.0001) %MON surfExpan_salt_mean          =  -1.7996722783725E-13
(PID.TID 0000.0001) // =======================================================
(PID.TID 0000.0001) // End MONITOR dynamic field statistics
(PID.TID 0000.0001) // =======================================================
(PID.TID 0000.0001) // =======================================================
(PID.TID 0000.0001) // Begin MONITOR dynamic field statistics
(PID.TID 0000.0001) // =======================================================
(PID.TID 0000.0001) %MON time_tsnumber                =                116640
(PID.TID 0000.0001) %MON time_secondsf                =   9.3312000000000E+06
(PID.TID 0000.0001) %MON dynstat_eta_max              =   2.1203984941644E-01
(PID.TID 0000.0001) %MON dynstat_eta_min              =  -1.3489633022650E-01
(PID.TID 0000.0001) %MON dynstat_eta_mean             =   1.3066105429036E-16
(PID.TID 0000.0001) %MON dynstat_eta_sd               =   6.2949037075550E-02
(PID.TID 0000.0001) %MON dynstat_eta_del2             =   1.3701696831952E-03
(PID.TID 0000.0001) %MON dynstat_uvel_max             =   1.2282763649375E-02
(PID.TID 0000.0001) %MON dynstat_uvel_min             =  -1.4301596057893E-02
(PID.TID 0000.0001) %MON dynstat_uvel_mean            =  -8.3705049553172E-11
(PID.TID 0000.0001) %MON dynstat_uvel_sd              =   3.0820877968856E-03
(PID.TID 0000.0001) %MON dynstat_uvel_del2            =   1.3487912644620E-05
(PID.TID 0000.0001) %MON dynstat_vvel_max             =   8.4596067682779E-03
(PID.TID 0000.0001) %MON dynstat_vvel_min             =  -5.7543888476014E-03
(PID.TID 0000.0001) %MON dynstat_vvel_mean            =   9.5958099901146E-12
(PID.TID 0000.0001) %MON dynstat_vvel_sd              =   1.1326744323292E-03
(PID.TID 0000.0001) %MON dynstat_vvel_del2            =   1.4263034769026E-05
(PID.TID 0000.0001) %MON dynstat_wvel_max             =   9.0929790237435E-04
(PID.TID 0000.0001) %MON dynstat_wvel_min             =  -7.1378988893054E-04
(PID.TID 0000.0001) %MON dynstat_wvel_mean            =   9.7311034859693E-12
(PID.TID 0000.0001) %MON dynstat_wvel_sd              =   5.4094050455487E-05
(PID.TID 0000.0001) %MON dynstat_wvel_del2            =   1.5304301834233E-06
(PID.TID 0000.0001) %MON dynstat_theta_max            =  -2.0999756530144E+00
(PID.TID 0000.0001) %MON dynstat_theta_min            =  -2.2064223110849E+00
(PID.TID 0000.0001) %MON dynstat_theta_mean           =  -2.1161733991843E+00
(PID.TID 0000.0001) %MON dynstat_theta_sd             =   1.9063674565934E-02
(PID.TID 0000.0001) %MON dynstat_theta_del2           =   3.0456227718852E-05
(PID.TID 0000.0001) %MON dynstat_salt_max             =   3.4499992244371E+01
(PID.TID 0000.0001) %MON dynstat_salt_min             =   3.4467683559193E+01
(PID.TID 0000.0001) %MON dynstat_salt_mean            =   3.4493861155444E+01
(PID.TID 0000.0001) %MON dynstat_salt_sd              =   7.7791212175377E-03
(PID.TID 0000.0001) %MON dynstat_salt_del2            =   2.5005312924152E-06
(PID.TID 0000.0001) %MON trAdv_CFL_u_max              =   4.9600968057527E-03
(PID.TID 0000.0001) %MON trAdv_CFL_v_max              =   8.0366264298640E-03
(PID.TID 0000.0001) %MON trAdv_CFL_w_max              =   6.6130756536317E-03
(PID.TID 0000.0001) %MON advcfl_uvel_max              =   4.9600968057527E-03
(PID.TID 0000.0001) %MON advcfl_vvel_max              =   8.0366264298640E-03
(PID.TID 0000.0001) %MON advcfl_wvel_max              =   6.6130756536317E-03
(PID.TID 0000.0001) %MON advcfl_W_hf_max              =   7.8816350085565E-03
(PID.TID 0000.0001) %MON pe_b_mean                    =   9.1227596424297E-05
(PID.TID 0000.0001) %MON ke_max                       =   9.6980551648759E-05
(PID.TID 0000.0001) %MON ke_mean                      =   5.1253269036056E-06
(PID.TID 0000.0001) %MON ke_vol                       =   1.8654725220387E+09
(PID.TID 0000.0001) %MON vort_r_min                   =  -1.6983145318748E-04
(PID.TID 0000.0001) %MON vort_r_max                   =   1.3328543556930E-04
(PID.TID 0000.0001) %MON vort_a_mean                  =   1.0000782634673E-04
(PID.TID 0000.0001) %MON vort_a_sd                    =   2.7293613820014E-05
(PID.TID 0000.0001) %MON vort_p_mean                  =   1.1991916022492E-04
(PID.TID 0000.0001) %MON vort_p_sd                    =   7.8387587349825E-05
(PID.TID 0000.0001) %MON surfExpan_theta_mean         =  -3.6808238557552E-13
(PID.TID 0000.0001) %MON surfExpan_salt_mean          =  -1.6958914207320E-13
(PID.TID 0000.0001) // =======================================================
(PID.TID 0000.0001) // End MONITOR dynamic field statistics
(PID.TID 0000.0001) // =======================================================
(PID.TID 0000.0001) // =======================================================
(PID.TID 0000.0001) // Begin MONITOR dynamic field statistics
(PID.TID 0000.0001) // =======================================================
(PID.TID 0000.0001) %MON time_tsnumber                =                119880
(PID.TID 0000.0001) %MON time_secondsf                =   9.5904000000000E+06
(PID.TID 0000.0001) %MON dynstat_eta_max              =   2.1202554220189E-01
(PID.TID 0000.0001) %MON dynstat_eta_min              =  -1.3487830568277E-01
(PID.TID 0000.0001) %MON dynstat_eta_mean             =   1.3509964636817E-16
(PID.TID 0000.0001) %MON dynstat_eta_sd               =   6.2940585759262E-02
(PID.TID 0000.0001) %MON dynstat_eta_del2             =   1.3700384496014E-03
(PID.TID 0000.0001) %MON dynstat_uvel_max             =   9.9734580318642E-03
(PID.TID 0000.0001) %MON dynstat_uvel_min             =  -1.4585759143440E-02
(PID.TID 0000.0001) %MON dynstat_uvel_mean            =  -4.8336574177068E-12
(PID.TID 0000.0001) %MON dynstat_uvel_sd              =   3.0165350095435E-03
(PID.TID 0000.0001) %MON dynstat_uvel_del2            =   1.3367214377263E-05
(PID.TID 0000.0001) %MON dynstat_vvel_max             =   8.1631259783165E-03
(PID.TID 0000.0001) %MON dynstat_vvel_min             =  -6.5347281025511E-03
(PID.TID 0000.0001) %MON dynstat_vvel_mean            =   1.0947584751143E-11
(PID.TID 0000.0001) %MON dynstat_vvel_sd              =   1.1067959687992E-03
(PID.TID 0000.0001) %MON dynstat_vvel_del2            =   1.4257686859143E-05
(PID.TID 0000.0001) %MON dynstat_wvel_max             =   9.3234292117413E-04
(PID.TID 0000.0001) %MON dynstat_wvel_min             =  -6.1998771326181E-04
(PID.TID 0000.0001) %MON dynstat_wvel_mean            =   8.7318317435985E-12
(PID.TID 0000.0001) %MON dynstat_wvel_sd              =   5.3323867017007E-05
(PID.TID 0000.0001) %MON dynstat_wvel_del2            =   1.5204802895218E-06
(PID.TID 0000.0001) %MON dynstat_theta_max            =  -2.0999583134907E+00
(PID.TID 0000.0001) %MON dynstat_theta_min            =  -2.2086111764454E+00
(PID.TID 0000.0001) %MON dynstat_theta_mean           =  -2.1164704495117E+00
(PID.TID 0000.0001) %MON dynstat_theta_sd             =   1.9335616014899E-02
(PID.TID 0000.0001) %MON dynstat_theta_del2           =   3.0950795381115E-05
(PID.TID 0000.0001) %MON dynstat_salt_max             =   3.4499994727192E+01
(PID.TID 0000.0001) %MON dynstat_salt_min             =   3.4467529578959E+01
(PID.TID 0000.0001) %MON dynstat_salt_mean            =   3.4493753350532E+01
(PID.TID 0000.0001) %MON dynstat_salt_sd              =   7.8791476978023E-03
(PID.TID 0000.0001) %MON dynstat_salt_del2            =   2.4884275901959E-06
(PID.TID 0000.0001) %MON trAdv_CFL_u_max              =   5.0586505900457E-03
(PID.TID 0000.0001) %MON trAdv_CFL_v_max              =   7.7549696794007E-03
(PID.TID 0000.0001) %MON trAdv_CFL_w_max              =   6.7806757903573E-03
(PID.TID 0000.0001) %MON advcfl_uvel_max              =   5.0586505900457E-03
(PID.TID 0000.0001) %MON advcfl_vvel_max              =   7.7549696794007E-03
(PID.TID 0000.0001) %MON advcfl_wvel_max              =   6.7806757903573E-03
(PID.TID 0000.0001) %MON advcfl_W_hf_max              =   6.7806757903573E-03
(PID.TID 0000.0001) %MON pe_b_mean                    =   9.1202446323739E-05
(PID.TID 0000.0001) %MON ke_max                       =   1.0492173381836E-04
(PID.TID 0000.0001) %MON ke_mean                      =   4.9078540521616E-06
(PID.TID 0000.0001) %MON ke_vol                       =   1.8654725220387E+09
(PID.TID 0000.0001) %MON vort_r_min                   =  -1.7320588982836E-04
(PID.TID 0000.0001) %MON vort_r_max                   =   1.2613382812400E-04
(PID.TID 0000.0001) %MON vort_a_mean                  =   1.0000782634673E-04
(PID.TID 0000.0001) %MON vort_a_sd                    =   2.6782380858528E-05
(PID.TID 0000.0001) %MON vort_p_mean                  =   1.1991916022492E-04
(PID.TID 0000.0001) %MON vort_p_sd                    =   7.7605671160054E-05
(PID.TID 0000.0001) %MON surfExpan_theta_mean         =  -3.6616563697224E-13
(PID.TID 0000.0001) %MON surfExpan_salt_mean          =  -1.6093719468473E-13
(PID.TID 0000.0001) // =======================================================
(PID.TID 0000.0001) // End MONITOR dynamic field statistics
(PID.TID 0000.0001) // =======================================================
(PID.TID 0000.0001) // =======================================================
(PID.TID 0000.0001) // Begin MONITOR dynamic field statistics
(PID.TID 0000.0001) // =======================================================
(PID.TID 0000.0001) %MON time_tsnumber                =                123120
(PID.TID 0000.0001) %MON time_secondsf                =   9.8496000000000E+06
(PID.TID 0000.0001) %MON dynstat_eta_max              =   2.1201123745246E-01
(PID.TID 0000.0001) %MON dynstat_eta_min              =  -1.3486298060845E-01
(PID.TID 0000.0001) %MON dynstat_eta_mean             =   1.4369941851891E-16
(PID.TID 0000.0001) %MON dynstat_eta_sd               =   6.2932567353713E-02
(PID.TID 0000.0001) %MON dynstat_eta_del2             =   1.3698889898356E-03
(PID.TID 0000.0001) %MON dynstat_uvel_max             =   9.7873925776184E-03
(PID.TID 0000.0001) %MON dynstat_uvel_min             =  -1.3601013641502E-02
(PID.TID 0000.0001) %MON dynstat_uvel_mean            =   6.3176814583385E-11
(PID.TID 0000.0001) %MON dynstat_uvel_sd              =   2.9533809778584E-03
(PID.TID 0000.0001) %MON dynstat_uvel_del2            =   1.3919958478278E-05
(PID.TID 0000.0001) %MON dynstat_vvel_max             =   6.4364647665810E-03
(PID.TID 0000.0001) %MON dynstat_vvel_min             =  -5.6683935531002E-03
(PID.TID 0000.0001) %MON dynstat_vvel_mean            =   1.2046571494691E-11
(PID.TID 0000.0001) %MON dynstat_vvel_sd              =   1.0621674707152E-03
(PID.TID 0000.0001) %MON dynstat_vvel_del2            =   1.3939519018351E-05
(PID.TID 0000.0001) %MON dynstat_wvel_max             =   9.1665090380298E-04
(PID.TID 0000.0001) %MON dynstat_wvel_min             =  -6.0207929634600E-04
(PID.TID 0000.0001) %MON dynstat_wvel_mean            =   7.9920514304116E-12
(PID.TID 0000.0001) %MON dynstat_wvel_sd              =   5.3870650810852E-05
(PID.TID 0000.0001) %MON dynstat_wvel_del2            =   1.5455105985987E-06
(PID.TID 0000.0001) %MON dynstat_theta_max            =  -2.1000614532796E+00
(PID.TID 0000.0001) %MON dynstat_theta_min            =  -2.2103024510097E+00
(PID.TID 0000.0001) %MON dynstat_theta_mean           =  -2.1167596763126E+00
(PID.TID 0000.0001) %MON dynstat_theta_sd             =   1.9593996336941E-02
(PID.TID 0000.0001) %MON dynstat_theta_del2           =   3.3072550186169E-05
(PID.TID 0000.0001) %MON dynstat_salt_max             =   3.4499987714015E+01
(PID.TID 0000.0001) %MON dynstat_salt_min             =   3.4467428347479E+01
(PID.TID 0000.0001) %MON dynstat_salt_mean            =   3.4493648768773E+01
(PID.TID 0000.0001) %MON dynstat_salt_sd              =   7.9752458948860E-03
(PID.TID 0000.0001) %MON dynstat_salt_del2            =   2.5693389600945E-06
(PID.TID 0000.0001) %MON trAdv_CFL_u_max              =   4.7171199665496E-03
(PID.TID 0000.0001) %MON trAdv_CFL_v_max              =   6.1146415282519E-03
(PID.TID 0000.0001) %MON trAdv_CFL_w_max              =   6.6665520276580E-03
(PID.TID 0000.0001) %MON advcfl_uvel_max              =   4.7171199665496E-03
(PID.TID 0000.0001) %MON advcfl_vvel_max              =   6.1146415282519E-03
(PID.TID 0000.0001) %MON advcfl_wvel_max              =   6.6665520276580E-03
(PID.TID 0000.0001) %MON advcfl_W_hf_max              =   7.0045140434109E-03
(PID.TID 0000.0001) %MON pe_b_mean                    =   9.1178513725338E-05
(PID.TID 0000.0001) %MON ke_max                       =   9.0993372250755E-05
(PID.TID 0000.0001) %MON ke_mean                      =   4.6839186502364E-06
(PID.TID 0000.0001) %MON ke_vol                       =   1.8654725220387E+09
(PID.TID 0000.0001) %MON vort_r_min                   =  -1.6151203699284E-04
(PID.TID 0000.0001) %MON vort_r_max                   =   1.0020427657054E-04
(PID.TID 0000.0001) %MON vort_a_mean                  =   1.0000782634673E-04
(PID.TID 0000.0001) %MON vort_a_sd                    =   2.6215603329212E-05
(PID.TID 0000.0001) %MON vort_p_mean                  =   1.1991916022492E-04
(PID.TID 0000.0001) %MON vort_p_sd                    =   7.6876869218127E-05
(PID.TID 0000.0001) %MON surfExpan_theta_mean         =  -3.6542568328657E-13
(PID.TID 0000.0001) %MON surfExpan_salt_mean          =  -1.5181799804690E-13
(PID.TID 0000.0001) // =======================================================
(PID.TID 0000.0001) // End MONITOR dynamic field statistics
(PID.TID 0000.0001) // =======================================================
(PID.TID 0000.0001) // =======================================================
(PID.TID 0000.0001) // Begin MONITOR dynamic field statistics
(PID.TID 0000.0001) // =======================================================
(PID.TID 0000.0001) %MON time_tsnumber                =                126360
(PID.TID 0000.0001) %MON time_secondsf                =   1.0108800000000E+07
(PID.TID 0000.0001) %MON dynstat_eta_max              =   2.1199846090035E-01
(PID.TID 0000.0001) %MON dynstat_eta_min              =  -1.3484758962411E-01
(PID.TID 0000.0001) %MON dynstat_eta_mean             =   1.5146695465507E-16
(PID.TID 0000.0001) %MON dynstat_eta_sd               =   6.2924924939428E-02
(PID.TID 0000.0001) %MON dynstat_eta_del2             =   1.3697468979681E-03
(PID.TID 0000.0001) %MON dynstat_uvel_max             =   9.4162254386318E-03
(PID.TID 0000.0001) %MON dynstat_uvel_min             =  -1.3391348487439E-02
(PID.TID 0000.0001) %MON dynstat_uvel_mean            =   3.0586804634265E-11
(PID.TID 0000.0001) %MON dynstat_uvel_sd              =   2.8746592867833E-03
(PID.TID 0000.0001) %MON dynstat_uvel_del2            =   1.3358122271096E-05
(PID.TID 0000.0001) %MON dynstat_vvel_max             =   6.3628999394263E-03
(PID.TID 0000.0001) %MON dynstat_vvel_min             =  -6.7574391273138E-03
(PID.TID 0000.0001) %MON dynstat_vvel_mean            =   1.2627632275822E-11
(PID.TID 0000.0001) %MON dynstat_vvel_sd              =   1.0372952915593E-03
(PID.TID 0000.0001) %MON dynstat_vvel_del2            =   1.3983384768433E-05
(PID.TID 0000.0001) %MON dynstat_wvel_max             =   9.1940868021465E-04
(PID.TID 0000.0001) %MON dynstat_wvel_min             =  -6.0898040488731E-04
(PID.TID 0000.0001) %MON dynstat_wvel_mean            =   7.5398587127760E-12
(PID.TID 0000.0001) %MON dynstat_wvel_sd              =   5.3496725304720E-05
(PID.TID 0000.0001) %MON dynstat_wvel_del2            =   1.5247599035535E-06
(PID.TID 0000.0001) %MON dynstat_theta_max            =  -2.1000748776453E+00
(PID.TID 0000.0001) %MON dynstat_theta_min            =  -2.2114366566796E+00
(PID.TID 0000.0001) %MON dynstat_theta_mean           =  -2.1170385936609E+00
(PID.TID 0000.0001) %MON dynstat_theta_sd             =   1.9841404949412E-02
(PID.TID 0000.0001) %MON dynstat_theta_del2           =   3.1159369777976E-05
(PID.TID 0000.0001) %MON dynstat_salt_max             =   3.4499983546395E+01
(PID.TID 0000.0001) %MON dynstat_salt_min             =   3.4467083676523E+01
(PID.TID 0000.0001) %MON dynstat_salt_mean            =   3.4493548434078E+01
(PID.TID 0000.0001) %MON dynstat_salt_sd              =   8.0662407755562E-03
(PID.TID 0000.0001) %MON dynstat_salt_del2            =   2.4650831747435E-06
(PID.TID 0000.0001) %MON trAdv_CFL_u_max              =   4.6444036447672E-03
(PID.TID 0000.0001) %MON trAdv_CFL_v_max              =   6.4195671709481E-03
(PID.TID 0000.0001) %MON trAdv_CFL_w_max              =   6.6866085833793E-03
(PID.TID 0000.0001) %MON advcfl_uvel_max              =   4.6444036447672E-03
(PID.TID 0000.0001) %MON advcfl_vvel_max              =   6.4195671709481E-03
(PID.TID 0000.0001) %MON advcfl_wvel_max              =   6.6866085833793E-03
(PID.TID 0000.0001) %MON advcfl_W_hf_max              =   7.1535025836495E-03
(PID.TID 0000.0001) %MON pe_b_mean                    =   9.1155787710395E-05
(PID.TID 0000.0001) %MON ke_max                       =   8.7694444746216E-05
(PID.TID 0000.0001) %MON ke_mean                      =   4.4407341056008E-06
(PID.TID 0000.0001) %MON ke_vol                       =   1.8654725220387E+09
(PID.TID 0000.0001) %MON vort_r_min                   =  -1.5902226328834E-04
(PID.TID 0000.0001) %MON vort_r_max                   =   1.0812534152295E-04
(PID.TID 0000.0001) %MON vort_a_mean                  =   1.0000782634673E-04
(PID.TID 0000.0001) %MON vort_a_sd                    =   2.5344381569448E-05
(PID.TID 0000.0001) %MON vort_p_mean                  =   1.1991916022492E-04
(PID.TID 0000.0001) %MON vort_p_sd                    =   7.6241065508594E-05
(PID.TID 0000.0001) %MON surfExpan_theta_mean         =  -3.1885692522458E-13
(PID.TID 0000.0001) %MON surfExpan_salt_mean          =  -1.3797372686957E-13
(PID.TID 0000.0001) // =======================================================
(PID.TID 0000.0001) // End MONITOR dynamic field statistics
(PID.TID 0000.0001) // =======================================================
(PID.TID 0000.0001) // =======================================================
(PID.TID 0000.0001) // Begin MONITOR dynamic field statistics
(PID.TID 0000.0001) // =======================================================
(PID.TID 0000.0001) %MON time_tsnumber                =                129600
(PID.TID 0000.0001) %MON time_secondsf                =   1.0368000000000E+07
(PID.TID 0000.0001) %MON dynstat_eta_max              =   2.1198624729949E-01
(PID.TID 0000.0001) %MON dynstat_eta_min              =  -1.3483000495624E-01
(PID.TID 0000.0001) %MON dynstat_eta_mean             =   1.6256343484958E-16
(PID.TID 0000.0001) %MON dynstat_eta_sd               =   6.2917741590178E-02
(PID.TID 0000.0001) %MON dynstat_eta_del2             =   1.3696028564338E-03
(PID.TID 0000.0001) %MON dynstat_uvel_max             =   1.0170963753498E-02
(PID.TID 0000.0001) %MON dynstat_uvel_min             =  -1.1991003565935E-02
(PID.TID 0000.0001) %MON dynstat_uvel_mean            =   9.3623519265013E-12
(PID.TID 0000.0001) %MON dynstat_uvel_sd              =   2.7839343443611E-03
(PID.TID 0000.0001) %MON dynstat_uvel_del2            =   1.3149930172830E-05
(PID.TID 0000.0001) %MON dynstat_vvel_max             =   6.7465735706853E-03
(PID.TID 0000.0001) %MON dynstat_vvel_min             =  -5.6041895030623E-03
(PID.TID 0000.0001) %MON dynstat_vvel_mean            =   9.4125585923786E-12
(PID.TID 0000.0001) %MON dynstat_vvel_sd              =   1.0016556326537E-03
(PID.TID 0000.0001) %MON dynstat_vvel_del2            =   1.3010852263704E-05
(PID.TID 0000.0001) %MON dynstat_wvel_max             =   8.5821189325258E-04
(PID.TID 0000.0001) %MON dynstat_wvel_min             =  -6.6573933367859E-04
(PID.TID 0000.0001) %MON dynstat_wvel_mean            =   7.3509089713005E-12
(PID.TID 0000.0001) %MON dynstat_wvel_sd              =   5.0697429924866E-05
(PID.TID 0000.0001) %MON dynstat_wvel_del2            =   1.4264052562945E-06
(PID.TID 0000.0001) %MON dynstat_theta_max            =  -2.1000223891586E+00
(PID.TID 0000.0001) %MON dynstat_theta_min            =  -2.2122132284104E+00
(PID.TID 0000.0001) %MON dynstat_theta_mean           =  -2.1173052666911E+00
(PID.TID 0000.0001) %MON dynstat_theta_sd             =   2.0091309348039E-02
(PID.TID 0000.0001) %MON dynstat_theta_del2           =   3.7060010590232E-05
(PID.TID 0000.0001) %MON dynstat_salt_max             =   3.4499986791496E+01
(PID.TID 0000.0001) %MON dynstat_salt_min             =   3.4466338558509E+01
(PID.TID 0000.0001) %MON dynstat_salt_mean            =   3.4493453143456E+01
(PID.TID 0000.0001) %MON dynstat_salt_sd              =   8.1508852310574E-03
(PID.TID 0000.0001) %MON dynstat_salt_del2            =   2.5798333011103E-06
(PID.TID 0000.0001) %MON trAdv_CFL_u_max              =   4.1587343289799E-03
(PID.TID 0000.0001) %MON trAdv_CFL_v_max              =   6.4092448921510E-03
(PID.TID 0000.0001) %MON trAdv_CFL_w_max              =   6.2415410418369E-03
(PID.TID 0000.0001) %MON advcfl_uvel_max              =   4.1587343289799E-03
(PID.TID 0000.0001) %MON advcfl_vvel_max              =   6.4092448921510E-03
(PID.TID 0000.0001) %MON advcfl_wvel_max              =   6.2415410418369E-03
(PID.TID 0000.0001) %MON advcfl_W_hf_max              =   7.1302239367648E-03
(PID.TID 0000.0001) %MON pe_b_mean                    =   9.1134405828166E-05
(PID.TID 0000.0001) %MON ke_max                       =   7.1821494871028E-05
(PID.TID 0000.0001) %MON ke_mean                      =   4.1622526202330E-06
(PID.TID 0000.0001) %MON ke_vol                       =   1.8654725220387E+09
(PID.TID 0000.0001) %MON vort_r_min                   =  -1.4239316734548E-04
(PID.TID 0000.0001) %MON vort_r_max                   =   1.2133593390045E-04
(PID.TID 0000.0001) %MON vort_a_mean                  =   1.0000782634673E-04
(PID.TID 0000.0001) %MON vort_a_sd                    =   2.4348839522482E-05
(PID.TID 0000.0001) %MON vort_p_mean                  =   1.1991916022492E-04
(PID.TID 0000.0001) %MON vort_p_sd                    =   7.5370735137212E-05
(PID.TID 0000.0001) %MON surfExpan_theta_mean         =  -3.1217697167675E-13
(PID.TID 0000.0001) %MON surfExpan_salt_mean          =  -1.3771121047807E-13
(PID.TID 0000.0001) // =======================================================
(PID.TID 0000.0001) // End MONITOR dynamic field statistics
(PID.TID 0000.0001) // =======================================================
(PID.TID 0000.0001) %CHECKPOINT    130680 0000130680
(PID.TID 0000.0001) // =======================================================
(PID.TID 0000.0001) // Begin MONITOR dynamic field statistics
(PID.TID 0000.0001) // =======================================================
(PID.TID 0000.0001) %MON time_tsnumber                =                132840
(PID.TID 0000.0001) %MON time_secondsf                =   1.0627200000000E+07
(PID.TID 0000.0001) %MON dynstat_eta_max              =   2.1197412420784E-01
(PID.TID 0000.0001) %MON dynstat_eta_min              =  -1.3481733794584E-01
(PID.TID 0000.0001) %MON dynstat_eta_mean             =   1.6561496690307E-16
(PID.TID 0000.0001) %MON dynstat_eta_sd               =   6.2910825671399E-02
(PID.TID 0000.0001) %MON dynstat_eta_del2             =   1.3694784641805E-03
(PID.TID 0000.0001) %MON dynstat_uvel_max             =   1.1644037105811E-02
(PID.TID 0000.0001) %MON dynstat_uvel_min             =  -1.1983529127819E-02
(PID.TID 0000.0001) %MON dynstat_uvel_mean            =  -2.0575819142521E-11
(PID.TID 0000.0001) %MON dynstat_uvel_sd              =   2.7369715965567E-03
(PID.TID 0000.0001) %MON dynstat_uvel_del2            =   1.2872021631816E-05
(PID.TID 0000.0001) %MON dynstat_vvel_max             =   8.2745106090615E-03
(PID.TID 0000.0001) %MON dynstat_vvel_min             =  -6.5020583173552E-03
(PID.TID 0000.0001) %MON dynstat_vvel_mean            =   8.7584412389264E-12
(PID.TID 0000.0001) %MON dynstat_vvel_sd              =   9.9006936688150E-04
(PID.TID 0000.0001) %MON dynstat_vvel_del2            =   1.3399075777219E-05
(PID.TID 0000.0001) %MON dynstat_wvel_max             =   7.9249561756246E-04
(PID.TID 0000.0001) %MON dynstat_wvel_min             =  -7.5836655277747E-04
(PID.TID 0000.0001) %MON dynstat_wvel_mean            =   7.2728542109607E-12
(PID.TID 0000.0001) %MON dynstat_wvel_sd              =   5.0910723125808E-05
(PID.TID 0000.0001) %MON dynstat_wvel_del2            =   1.4716165498886E-06
(PID.TID 0000.0001) %MON dynstat_theta_max            =  -2.1000102672705E+00
(PID.TID 0000.0001) %MON dynstat_theta_min            =  -2.2130247455429E+00
(PID.TID 0000.0001) %MON dynstat_theta_mean           =  -2.1175609035380E+00
(PID.TID 0000.0001) %MON dynstat_theta_sd             =   2.0300880769375E-02
(PID.TID 0000.0001) %MON dynstat_theta_del2           =   3.4648520060412E-05
(PID.TID 0000.0001) %MON dynstat_salt_max             =   3.4499986506622E+01
(PID.TID 0000.0001) %MON dynstat_salt_min             =   3.4465414771271E+01
(PID.TID 0000.0001) %MON dynstat_salt_mean            =   3.4493362399213E+01
(PID.TID 0000.0001) %MON dynstat_salt_sd              =   8.2320609537430E-03
(PID.TID 0000.0001) %MON dynstat_salt_del2            =   2.5273749359811E-06
(PID.TID 0000.0001) %MON trAdv_CFL_u_max              =   4.1561420353313E-03
(PID.TID 0000.0001) %MON trAdv_CFL_v_max              =   7.8607850786084E-03
(PID.TID 0000.0001) %MON trAdv_CFL_w_max              =   5.7636044913633E-03
(PID.TID 0000.0001) %MON advcfl_uvel_max              =   4.1561420353313E-03
(PID.TID 0000.0001) %MON advcfl_vvel_max              =   7.8607850786084E-03
(PID.TID 0000.0001) %MON advcfl_wvel_max              =   5.7636044913633E-03
(PID.TID 0000.0001) %MON advcfl_W_hf_max              =   6.9896753888556E-03
(PID.TID 0000.0001) %MON pe_b_mean                    =   9.1113737795863E-05
(PID.TID 0000.0001) %MON ke_max                       =   7.1054636312937E-05
(PID.TID 0000.0001) %MON ke_mean                      =   4.0276985741007E-06
(PID.TID 0000.0001) %MON ke_vol                       =   1.8654725220387E+09
(PID.TID 0000.0001) %MON vort_r_min                   =  -1.4230440839285E-04
(PID.TID 0000.0001) %MON vort_r_max                   =   1.3967787581720E-04
(PID.TID 0000.0001) %MON vort_a_mean                  =   1.0000782634673E-04
(PID.TID 0000.0001) %MON vort_a_sd                    =   2.4139784018027E-05
(PID.TID 0000.0001) %MON vort_p_mean                  =   1.1991916022492E-04
(PID.TID 0000.0001) %MON vort_p_sd                    =   7.5518631419425E-05
(PID.TID 0000.0001) %MON surfExpan_theta_mean         =  -2.8981677567632E-13
(PID.TID 0000.0001) %MON surfExpan_salt_mean          =  -1.3157506421290E-13
(PID.TID 0000.0001) // =======================================================
(PID.TID 0000.0001) // End MONITOR dynamic field statistics
(PID.TID 0000.0001) // =======================================================
(PID.TID 0000.0001) // =======================================================
(PID.TID 0000.0001) // Begin MONITOR dynamic field statistics
(PID.TID 0000.0001) // =======================================================
(PID.TID 0000.0001) %MON time_tsnumber                =                136080
(PID.TID 0000.0001) %MON time_secondsf                =   1.0886400000000E+07
(PID.TID 0000.0001) %MON dynstat_eta_max              =   2.1196194308710E-01
(PID.TID 0000.0001) %MON dynstat_eta_min              =  -1.3480256209960E-01
(PID.TID 0000.0001) %MON dynstat_eta_mean             =   1.6117637482527E-16
(PID.TID 0000.0001) %MON dynstat_eta_sd               =   6.2903865246036E-02
(PID.TID 0000.0001) %MON dynstat_eta_del2             =   1.3693456061075E-03
(PID.TID 0000.0001) %MON dynstat_uvel_max             =   1.1930502379584E-02
(PID.TID 0000.0001) %MON dynstat_uvel_min             =  -1.3197860809341E-02
(PID.TID 0000.0001) %MON dynstat_uvel_mean            =  -1.8433623409878E-11
(PID.TID 0000.0001) %MON dynstat_uvel_sd              =   2.7413474569767E-03
(PID.TID 0000.0001) %MON dynstat_uvel_del2            =   1.2733217183111E-05
(PID.TID 0000.0001) %MON dynstat_vvel_max             =   9.3532423386362E-03
(PID.TID 0000.0001) %MON dynstat_vvel_min             =  -6.3227538962419E-03
(PID.TID 0000.0001) %MON dynstat_vvel_mean            =   1.0911333350245E-11
(PID.TID 0000.0001) %MON dynstat_vvel_sd              =   9.5752160179007E-04
(PID.TID 0000.0001) %MON dynstat_vvel_del2            =   1.3083429208474E-05
(PID.TID 0000.0001) %MON dynstat_wvel_max             =   7.7212195829245E-04
(PID.TID 0000.0001) %MON dynstat_wvel_min             =  -7.0390535529728E-04
(PID.TID 0000.0001) %MON dynstat_wvel_mean            =   7.8106328612788E-12
(PID.TID 0000.0001) %MON dynstat_wvel_sd              =   5.1564109947170E-05
(PID.TID 0000.0001) %MON dynstat_wvel_del2            =   1.4511820123296E-06
(PID.TID 0000.0001) %MON dynstat_theta_max            =  -2.1001103881680E+00
(PID.TID 0000.0001) %MON dynstat_theta_min            =  -2.2143026448080E+00
(PID.TID 0000.0001) %MON dynstat_theta_mean           =  -2.1178173647661E+00
(PID.TID 0000.0001) %MON dynstat_theta_sd             =   2.0530362637814E-02
(PID.TID 0000.0001) %MON dynstat_theta_del2           =   3.4398080831669E-05
(PID.TID 0000.0001) %MON dynstat_salt_max             =   3.4499978415590E+01
(PID.TID 0000.0001) %MON dynstat_salt_min             =   3.4465385669931E+01
(PID.TID 0000.0001) %MON dynstat_salt_mean            =   3.4493271315270E+01
(PID.TID 0000.0001) %MON dynstat_salt_sd              =   8.3144984494350E-03
(PID.TID 0000.0001) %MON dynstat_salt_del2            =   2.4737446508674E-06
(PID.TID 0000.0001) %MON trAdv_CFL_u_max              =   4.5772980147243E-03
(PID.TID 0000.0001) %MON trAdv_CFL_v_max              =   8.8855802217044E-03
(PID.TID 0000.0001) %MON trAdv_CFL_w_max              =   5.6154324239451E-03
(PID.TID 0000.0001) %MON advcfl_uvel_max              =   4.5772980147243E-03
(PID.TID 0000.0001) %MON advcfl_vvel_max              =   8.8855802217044E-03
(PID.TID 0000.0001) %MON advcfl_wvel_max              =   5.6154324239451E-03
(PID.TID 0000.0001) %MON advcfl_W_hf_max              =   7.0429586819022E-03
(PID.TID 0000.0001) %MON pe_b_mean                    =   9.1093061187547E-05
(PID.TID 0000.0001) %MON ke_max                       =   8.5389422694908E-05
(PID.TID 0000.0001) %MON ke_mean                      =   4.0108434363291E-06
(PID.TID 0000.0001) %MON ke_vol                       =   1.8654725220387E+09
(PID.TID 0000.0001) %MON vort_r_min                   =  -1.5672459711093E-04
(PID.TID 0000.0001) %MON vort_r_max                   =   1.4976784798870E-04
(PID.TID 0000.0001) %MON vort_a_mean                  =   1.0000782634673E-04
(PID.TID 0000.0001) %MON vort_a_sd                    =   2.4749504114531E-05
(PID.TID 0000.0001) %MON vort_p_mean                  =   1.1991916022492E-04
(PID.TID 0000.0001) %MON vort_p_sd                    =   7.5713528645519E-05
(PID.TID 0000.0001) %MON surfExpan_theta_mean         =  -3.1519151179559E-13
(PID.TID 0000.0001) %MON surfExpan_salt_mean          =  -1.4095466465370E-13
(PID.TID 0000.0001) // =======================================================
(PID.TID 0000.0001) // End MONITOR dynamic field statistics
(PID.TID 0000.0001) // =======================================================
(PID.TID 0000.0001) // =======================================================
(PID.TID 0000.0001) // Begin MONITOR dynamic field statistics
(PID.TID 0000.0001) // =======================================================
(PID.TID 0000.0001) %MON time_tsnumber                =                139320
(PID.TID 0000.0001) %MON time_secondsf                =   1.1145600000000E+07
(PID.TID 0000.0001) %MON dynstat_eta_max              =   2.1194964606246E-01
(PID.TID 0000.0001) %MON dynstat_eta_min              =  -1.3478431101549E-01
(PID.TID 0000.0001) %MON dynstat_eta_mean             =   1.6700202692739E-16
(PID.TID 0000.0001) %MON dynstat_eta_sd               =   6.2896197841914E-02
(PID.TID 0000.0001) %MON dynstat_eta_del2             =   1.3692126570638E-03
(PID.TID 0000.0001) %MON dynstat_uvel_max             =   1.1873625749672E-02
(PID.TID 0000.0001) %MON dynstat_uvel_min             =  -1.4016306231520E-02
(PID.TID 0000.0001) %MON dynstat_uvel_mean            =  -2.9240262431808E-11
(PID.TID 0000.0001) %MON dynstat_uvel_sd              =   2.7604054867911E-03
(PID.TID 0000.0001) %MON dynstat_uvel_del2            =   1.3694674674081E-05
(PID.TID 0000.0001) %MON dynstat_vvel_max             =   9.3507036508483E-03
(PID.TID 0000.0001) %MON dynstat_vvel_min             =  -6.8993307610881E-03
(PID.TID 0000.0001) %MON dynstat_vvel_mean            =   1.2288837484560E-11
(PID.TID 0000.0001) %MON dynstat_vvel_sd              =   9.4923078775318E-04
(PID.TID 0000.0001) %MON dynstat_vvel_del2            =   1.3503239751818E-05
(PID.TID 0000.0001) %MON dynstat_wvel_max             =   7.8020193546158E-04
(PID.TID 0000.0001) %MON dynstat_wvel_min             =  -6.3460108119879E-04
(PID.TID 0000.0001) %MON dynstat_wvel_mean            =   8.4528777341817E-12
(PID.TID 0000.0001) %MON dynstat_wvel_sd              =   5.3198777388290E-05
(PID.TID 0000.0001) %MON dynstat_wvel_del2            =   1.4650240604517E-06
(PID.TID 0000.0001) %MON dynstat_theta_max            =  -2.1002416409887E+00
(PID.TID 0000.0001) %MON dynstat_theta_min            =  -2.2145536360989E+00
(PID.TID 0000.0001) %MON dynstat_theta_mean           =  -2.1180770424652E+00
(PID.TID 0000.0001) %MON dynstat_theta_sd             =   2.0766333219899E-02
(PID.TID 0000.0001) %MON dynstat_theta_del2           =   3.5326589945737E-05
(PID.TID 0000.0001) %MON dynstat_salt_max             =   3.4499970011316E+01
(PID.TID 0000.0001) %MON dynstat_salt_min             =   3.4465008912856E+01
(PID.TID 0000.0001) %MON dynstat_salt_mean            =   3.4493178905953E+01
(PID.TID 0000.0001) %MON dynstat_salt_sd              =   8.3994767362825E-03
(PID.TID 0000.0001) %MON dynstat_salt_del2            =   2.4743203051456E-06
(PID.TID 0000.0001) %MON trAdv_CFL_u_max              =   4.8611522438464E-03
(PID.TID 0000.0001) %MON trAdv_CFL_v_max              =   8.8831684683058E-03
(PID.TID 0000.0001) %MON trAdv_CFL_w_max              =   5.6741958942660E-03
(PID.TID 0000.0001) %MON advcfl_uvel_max              =   4.8611522438464E-03
(PID.TID 0000.0001) %MON advcfl_vvel_max              =   8.8831684683058E-03
(PID.TID 0000.0001) %MON advcfl_wvel_max              =   5.6741958942660E-03
(PID.TID 0000.0001) %MON advcfl_W_hf_max              =   7.8930183460315E-03
(PID.TID 0000.0001) %MON pe_b_mean                    =   9.1070528263872E-05
(PID.TID 0000.0001) %MON ke_max                       =   9.4782006317442E-05
(PID.TID 0000.0001) %MON ke_mean                      =   4.0540170277488E-06
(PID.TID 0000.0001) %MON ke_vol                       =   1.8654725220387E+09
(PID.TID 0000.0001) %MON vort_r_min                   =  -1.6644363649930E-04
(PID.TID 0000.0001) %MON vort_r_max                   =   1.4718996464489E-04
(PID.TID 0000.0001) %MON vort_a_mean                  =   1.0000782634673E-04
(PID.TID 0000.0001) %MON vort_a_sd                    =   2.5120743439238E-05
(PID.TID 0000.0001) %MON vort_p_mean                  =   1.1991916022492E-04
(PID.TID 0000.0001) %MON vort_p_sd                    =   7.6540724582978E-05
(PID.TID 0000.0001) %MON surfExpan_theta_mean         =  -3.1209857653924E-13
(PID.TID 0000.0001) %MON surfExpan_salt_mean          =  -1.4224611260409E-13
(PID.TID 0000.0001) // =======================================================
(PID.TID 0000.0001) // End MONITOR dynamic field statistics
(PID.TID 0000.0001) // =======================================================
(PID.TID 0000.0001) // =======================================================
(PID.TID 0000.0001) // Begin MONITOR dynamic field statistics
(PID.TID 0000.0001) // =======================================================
(PID.TID 0000.0001) %MON time_tsnumber                =                142560
(PID.TID 0000.0001) %MON time_secondsf                =   1.1404800000000E+07
(PID.TID 0000.0001) %MON dynstat_eta_max              =   2.1193763464691E-01
(PID.TID 0000.0001) %MON dynstat_eta_min              =  -1.3476692299167E-01
(PID.TID 0000.0001) %MON dynstat_eta_mean             =   1.7116320700033E-16
(PID.TID 0000.0001) %MON dynstat_eta_sd               =   6.2888608075449E-02
(PID.TID 0000.0001) %MON dynstat_eta_del2             =   1.3690814549131E-03
(PID.TID 0000.0001) %MON dynstat_uvel_max             =   1.0135296789235E-02
(PID.TID 0000.0001) %MON dynstat_uvel_min             =  -1.4568101652119E-02
(PID.TID 0000.0001) %MON dynstat_uvel_mean            =  -3.1160861347213E-11
(PID.TID 0000.0001) %MON dynstat_uvel_sd              =   2.7128884048633E-03
(PID.TID 0000.0001) %MON dynstat_uvel_del2            =   1.3921330416419E-05
(PID.TID 0000.0001) %MON dynstat_vvel_max             =   7.5347563082763E-03
(PID.TID 0000.0001) %MON dynstat_vvel_min             =  -7.0732939162515E-03
(PID.TID 0000.0001) %MON dynstat_vvel_mean            =   1.0409532007360E-11
(PID.TID 0000.0001) %MON dynstat_vvel_sd              =   9.2260768549087E-04
(PID.TID 0000.0001) %MON dynstat_vvel_del2            =   1.3445536359027E-05
(PID.TID 0000.0001) %MON dynstat_wvel_max             =   7.9805273471167E-04
(PID.TID 0000.0001) %MON dynstat_wvel_min             =  -8.4607133422867E-04
(PID.TID 0000.0001) %MON dynstat_wvel_mean            =   8.0419709307201E-12
(PID.TID 0000.0001) %MON dynstat_wvel_sd              =   5.3184932138075E-05
(PID.TID 0000.0001) %MON dynstat_wvel_del2            =   1.5485732483006E-06
(PID.TID 0000.0001) %MON dynstat_theta_max            =  -2.1002728443626E+00
(PID.TID 0000.0001) %MON dynstat_theta_min            =  -2.2139727645399E+00
(PID.TID 0000.0001) %MON dynstat_theta_mean           =  -2.1183268030285E+00
(PID.TID 0000.0001) %MON dynstat_theta_sd             =   2.0990198000536E-02
(PID.TID 0000.0001) %MON dynstat_theta_del2           =   3.5441956244852E-05
(PID.TID 0000.0001) %MON dynstat_salt_max             =   3.4499969249511E+01
(PID.TID 0000.0001) %MON dynstat_salt_min             =   3.4463693306252E+01
(PID.TID 0000.0001) %MON dynstat_salt_mean            =   3.4493090581731E+01
(PID.TID 0000.0001) %MON dynstat_salt_sd              =   8.4792431235077E-03
(PID.TID 0000.0001) %MON dynstat_salt_del2            =   2.3335254399488E-06
(PID.TID 0000.0001) %MON trAdv_CFL_u_max              =   5.0525265975945E-03
(PID.TID 0000.0001) %MON trAdv_CFL_v_max              =   7.1580184928625E-03
(PID.TID 0000.0001) %MON trAdv_CFL_w_max              =   6.1532460671176E-03
(PID.TID 0000.0001) %MON advcfl_uvel_max              =   5.0525265975945E-03
(PID.TID 0000.0001) %MON advcfl_vvel_max              =   7.1580184928625E-03
(PID.TID 0000.0001) %MON advcfl_wvel_max              =   6.1532460671176E-03
(PID.TID 0000.0001) %MON advcfl_W_hf_max              =   7.8701126545106E-03
(PID.TID 0000.0001) %MON pe_b_mean                    =   9.1048323551834E-05
(PID.TID 0000.0001) %MON ke_max                       =   1.0269532869823E-04
(PID.TID 0000.0001) %MON ke_mean                      =   3.9071171879531E-06
(PID.TID 0000.0001) %MON ke_vol                       =   1.8654725220387E+09
(PID.TID 0000.0001) %MON vort_r_min                   =  -1.7299620711892E-04
(PID.TID 0000.0001) %MON vort_r_max                   =   1.2035664937217E-04
(PID.TID 0000.0001) %MON vort_a_mean                  =   1.0000782634673E-04
(PID.TID 0000.0001) %MON vort_a_sd                    =   2.4666049990195E-05
(PID.TID 0000.0001) %MON vort_p_mean                  =   1.1991916022492E-04
(PID.TID 0000.0001) %MON vort_p_sd                    =   7.6671893270574E-05
(PID.TID 0000.0001) %MON surfExpan_theta_mean         =  -2.9114333848546E-13
(PID.TID 0000.0001) %MON surfExpan_salt_mean          =  -1.3350611236308E-13
(PID.TID 0000.0001) // =======================================================
(PID.TID 0000.0001) // End MONITOR dynamic field statistics
(PID.TID 0000.0001) // =======================================================
(PID.TID 0000.0001) // =======================================================
(PID.TID 0000.0001) // Begin MONITOR dynamic field statistics
(PID.TID 0000.0001) // =======================================================
(PID.TID 0000.0001) %MON time_tsnumber                =                145800
(PID.TID 0000.0001) %MON time_secondsf                =   1.1664000000000E+07
(PID.TID 0000.0001) %MON dynstat_eta_max              =   2.1192709036511E-01
(PID.TID 0000.0001) %MON dynstat_eta_min              =  -1.3474923134791E-01
(PID.TID 0000.0001) %MON dynstat_eta_mean             =   1.6727943893225E-16
(PID.TID 0000.0001) %MON dynstat_eta_sd               =   6.2881532815571E-02
(PID.TID 0000.0001) %MON dynstat_eta_del2             =   1.3689661830856E-03
(PID.TID 0000.0001) %MON dynstat_uvel_max             =   1.0394282804455E-02
(PID.TID 0000.0001) %MON dynstat_uvel_min             =  -1.3563835233503E-02
(PID.TID 0000.0001) %MON dynstat_uvel_mean            =  -3.0775907039008E-11
(PID.TID 0000.0001) %MON dynstat_uvel_sd              =   2.6309446009230E-03
(PID.TID 0000.0001) %MON dynstat_uvel_del2            =   1.3753687157686E-05
(PID.TID 0000.0001) %MON dynstat_vvel_max             =   6.9137915789546E-03
(PID.TID 0000.0001) %MON dynstat_vvel_min             =  -6.3891972985036E-03
(PID.TID 0000.0001) %MON dynstat_vvel_mean            =   1.0023969619264E-11
(PID.TID 0000.0001) %MON dynstat_vvel_sd              =   9.1612818593141E-04
(PID.TID 0000.0001) %MON dynstat_vvel_del2            =   1.3061632880997E-05
(PID.TID 0000.0001) %MON dynstat_wvel_max             =   8.1966463731491E-04
(PID.TID 0000.0001) %MON dynstat_wvel_min             =  -8.2488737212692E-04
(PID.TID 0000.0001) %MON dynstat_wvel_mean            =   7.0779600621433E-12
(PID.TID 0000.0001) %MON dynstat_wvel_sd              =   5.7136861269333E-05
(PID.TID 0000.0001) %MON dynstat_wvel_del2            =   1.7465011284050E-06
(PID.TID 0000.0001) %MON dynstat_theta_max            =  -2.1002794987325E+00
(PID.TID 0000.0001) %MON dynstat_theta_min            =  -2.2151984766248E+00
(PID.TID 0000.0001) %MON dynstat_theta_mean           =  -2.1185630344799E+00
(PID.TID 0000.0001) %MON dynstat_theta_sd             =   2.1196115090498E-02
(PID.TID 0000.0001) %MON dynstat_theta_del2           =   3.5212261105835E-05
(PID.TID 0000.0001) %MON dynstat_salt_max             =   3.4499968877509E+01
(PID.TID 0000.0001) %MON dynstat_salt_min             =   3.4462992281083E+01
(PID.TID 0000.0001) %MON dynstat_salt_mean            =   3.4493007830912E+01
(PID.TID 0000.0001) %MON dynstat_salt_sd              =   8.5510750822260E-03
(PID.TID 0000.0001) %MON dynstat_salt_del2            =   2.3482280525826E-06
(PID.TID 0000.0001) %MON trAdv_CFL_u_max              =   4.9237534638712E-03
(PID.TID 0000.0001) %MON trAdv_CFL_v_max              =   6.5681020000069E-03
(PID.TID 0000.0001) %MON trAdv_CFL_w_max              =   5.9998209368267E-03
(PID.TID 0000.0001) %MON advcfl_uvel_max              =   4.7042257062158E-03
(PID.TID 0000.0001) %MON advcfl_vvel_max              =   6.5681020000069E-03
(PID.TID 0000.0001) %MON advcfl_wvel_max              =   5.9991808881957E-03
(PID.TID 0000.0001) %MON advcfl_W_hf_max              =   7.8215695514839E-03
(PID.TID 0000.0001) %MON pe_b_mean                    =   9.1027655869089E-05
(PID.TID 0000.0001) %MON ke_max                       =   8.7560821957263E-05
(PID.TID 0000.0001) %MON ke_mean                      =   3.6919669591426E-06
(PID.TID 0000.0001) %MON ke_vol                       =   1.8654725220387E+09
(PID.TID 0000.0001) %MON vort_r_min                   =  -1.6107054339785E-04
(PID.TID 0000.0001) %MON vort_r_max                   =   1.2343210830291E-04
(PID.TID 0000.0001) %MON vort_a_mean                  =   1.0000782634673E-04
(PID.TID 0000.0001) %MON vort_a_sd                    =   2.3864958623356E-05
(PID.TID 0000.0001) %MON vort_p_mean                  =   1.1991916022492E-04
(PID.TID 0000.0001) %MON vort_p_sd                    =   7.6093122143533E-05
(PID.TID 0000.0001) %MON surfExpan_theta_mean         =  -2.5323551738937E-13
(PID.TID 0000.0001) %MON surfExpan_salt_mean          =  -1.1899613249689E-13
(PID.TID 0000.0001) // =======================================================
(PID.TID 0000.0001) // End MONITOR dynamic field statistics
(PID.TID 0000.0001) // =======================================================
(PID.TID 0000.0001) // =======================================================
(PID.TID 0000.0001) // Begin MONITOR dynamic field statistics
(PID.TID 0000.0001) // =======================================================
(PID.TID 0000.0001) %MON time_tsnumber                =                149040
(PID.TID 0000.0001) %MON time_secondsf                =   1.1923200000000E+07
(PID.TID 0000.0001) %MON dynstat_eta_max              =   2.1191716286010E-01
(PID.TID 0000.0001) %MON dynstat_eta_min              =  -1.3473296448930E-01
(PID.TID 0000.0001) %MON dynstat_eta_mean             =   1.6256343484958E-16
(PID.TID 0000.0001) %MON dynstat_eta_sd               =   6.2875247255599E-02
(PID.TID 0000.0001) %MON dynstat_eta_del2             =   1.3688736256483E-03
(PID.TID 0000.0001) %MON dynstat_uvel_max             =   1.0299139276133E-02
(PID.TID 0000.0001) %MON dynstat_uvel_min             =  -1.2661347889599E-02
(PID.TID 0000.0001) %MON dynstat_uvel_mean            =  -6.0716226621507E-12
(PID.TID 0000.0001) %MON dynstat_uvel_sd              =   2.5580174904687E-03
(PID.TID 0000.0001) %MON dynstat_uvel_del2            =   1.2954896983686E-05
(PID.TID 0000.0001) %MON dynstat_vvel_max             =   5.1314451148043E-03
(PID.TID 0000.0001) %MON dynstat_vvel_min             =  -7.0466083826857E-03
(PID.TID 0000.0001) %MON dynstat_vvel_mean            =   1.1543541878793E-11
(PID.TID 0000.0001) %MON dynstat_vvel_sd              =   9.1025927573867E-04
(PID.TID 0000.0001) %MON dynstat_vvel_del2            =   1.2022025461499E-05
(PID.TID 0000.0001) %MON dynstat_wvel_max             =   7.1658653882609E-04
(PID.TID 0000.0001) %MON dynstat_wvel_min             =  -6.9375763713500E-04
(PID.TID 0000.0001) %MON dynstat_wvel_mean            =   6.0240590262877E-12
(PID.TID 0000.0001) %MON dynstat_wvel_sd              =   4.8339408986243E-05
(PID.TID 0000.0001) %MON dynstat_wvel_del2            =   1.3901913178960E-06
(PID.TID 0000.0001) %MON dynstat_theta_max            =  -2.1002883316990E+00
(PID.TID 0000.0001) %MON dynstat_theta_min            =  -2.2177094592206E+00
(PID.TID 0000.0001) %MON dynstat_theta_mean           =  -2.1187892162633E+00
(PID.TID 0000.0001) %MON dynstat_theta_sd             =   2.1370388686444E-02
(PID.TID 0000.0001) %MON dynstat_theta_del2           =   3.3894259528483E-05
(PID.TID 0000.0001) %MON dynstat_salt_max             =   3.4499968350878E+01
(PID.TID 0000.0001) %MON dynstat_salt_min             =   3.4462839708118E+01
(PID.TID 0000.0001) %MON dynstat_salt_mean            =   3.4492929220589E+01
(PID.TID 0000.0001) %MON dynstat_salt_sd              =   8.6143411672923E-03
(PID.TID 0000.0001) %MON dynstat_salt_del2            =   2.3235607645875E-06
(PID.TID 0000.0001) %MON trAdv_CFL_u_max              =   4.3912239563683E-03
(PID.TID 0000.0001) %MON trAdv_CFL_v_max              =   6.6942779635514E-03
(PID.TID 0000.0001) %MON trAdv_CFL_w_max              =   5.2667712030634E-03
(PID.TID 0000.0001) %MON advcfl_uvel_max              =   4.3912239563683E-03
(PID.TID 0000.0001) %MON advcfl_vvel_max              =   6.6942779635514E-03
(PID.TID 0000.0001) %MON advcfl_wvel_max              =   5.2115384641898E-03
(PID.TID 0000.0001) %MON advcfl_W_hf_max              =   6.8798852832814E-03
(PID.TID 0000.0001) %MON pe_b_mean                    =   9.1009284058364E-05
(PID.TID 0000.0001) %MON ke_max                       =   7.5357674950209E-05
(PID.TID 0000.0001) %MON ke_mean                      =   3.5058508620188E-06
(PID.TID 0000.0001) %MON ke_vol                       =   1.8654725220387E+09
(PID.TID 0000.0001) %MON vort_r_min                   =  -1.5035350618899E-04
(PID.TID 0000.0001) %MON vort_r_max                   =   1.2230227890407E-04
(PID.TID 0000.0001) %MON vort_a_mean                  =   1.0000782634673E-04
(PID.TID 0000.0001) %MON vort_a_sd                    =   2.3054165942229E-05
(PID.TID 0000.0001) %MON vort_p_mean                  =   1.1991916022492E-04
(PID.TID 0000.0001) %MON vort_p_sd                    =   7.5516787109254E-05
(PID.TID 0000.0001) %MON surfExpan_theta_mean         =  -2.3882902656408E-13
(PID.TID 0000.0001) %MON surfExpan_salt_mean          =  -1.1162509947201E-13
(PID.TID 0000.0001) // =======================================================
(PID.TID 0000.0001) // End MONITOR dynamic field statistics
(PID.TID 0000.0001) // =======================================================
(PID.TID 0000.0001) // =======================================================
(PID.TID 0000.0001) // Begin MONITOR dynamic field statistics
(PID.TID 0000.0001) // =======================================================
(PID.TID 0000.0001) %MON time_tsnumber                =                152280
(PID.TID 0000.0001) %MON time_secondsf                =   1.2182400000000E+07
(PID.TID 0000.0001) %MON dynstat_eta_max              =   2.1190722702381E-01
(PID.TID 0000.0001) %MON dynstat_eta_min              =  -1.3472131022631E-01
(PID.TID 0000.0001) %MON dynstat_eta_mean             =   1.6200861083986E-16
(PID.TID 0000.0001) %MON dynstat_eta_sd               =   6.2869922715979E-02
(PID.TID 0000.0001) %MON dynstat_eta_del2             =   1.3687732385844E-03
(PID.TID 0000.0001) %MON dynstat_uvel_max             =   1.1476752758273E-02
(PID.TID 0000.0001) %MON dynstat_uvel_min             =  -1.1390125660454E-02
(PID.TID 0000.0001) %MON dynstat_uvel_mean            =  -1.9907499406390E-11
(PID.TID 0000.0001) %MON dynstat_uvel_sd              =   2.4800114346398E-03
(PID.TID 0000.0001) %MON dynstat_uvel_del2            =   1.2663798790630E-05
(PID.TID 0000.0001) %MON dynstat_vvel_max             =   5.2513721534506E-03
(PID.TID 0000.0001) %MON dynstat_vvel_min             =  -6.6268211813449E-03
(PID.TID 0000.0001) %MON dynstat_vvel_mean            =   6.9137434524016E-12
(PID.TID 0000.0001) %MON dynstat_vvel_sd              =   8.9331767953643E-04
(PID.TID 0000.0001) %MON dynstat_vvel_del2            =   1.1452424181616E-05
(PID.TID 0000.0001) %MON dynstat_wvel_max             =   6.9763505387897E-04
(PID.TID 0000.0001) %MON dynstat_wvel_min             =  -7.8213964402297E-04
(PID.TID 0000.0001) %MON dynstat_wvel_mean            =   5.4119541741470E-12
(PID.TID 0000.0001) %MON dynstat_wvel_sd              =   4.9329320569555E-05
(PID.TID 0000.0001) %MON dynstat_wvel_del2            =   1.4158573964377E-06
(PID.TID 0000.0001) %MON dynstat_theta_max            =  -2.1003518357622E+00
(PID.TID 0000.0001) %MON dynstat_theta_min            =  -2.2192892516472E+00
(PID.TID 0000.0001) %MON dynstat_theta_mean           =  -2.1190085484115E+00
(PID.TID 0000.0001) %MON dynstat_theta_sd             =   2.1546922751866E-02
(PID.TID 0000.0001) %MON dynstat_theta_del2           =   3.5795119536722E-05
(PID.TID 0000.0001) %MON dynstat_salt_max             =   3.4499967921070E+01
(PID.TID 0000.0001) %MON dynstat_salt_min             =   3.4463174904057E+01
(PID.TID 0000.0001) %MON dynstat_salt_mean            =   3.4492853432376E+01
(PID.TID 0000.0001) %MON dynstat_salt_sd              =   8.6707407605538E-03
(PID.TID 0000.0001) %MON dynstat_salt_del2            =   2.4466766594778E-06
(PID.TID 0000.0001) %MON trAdv_CFL_u_max              =   3.9803812432043E-03
(PID.TID 0000.0001) %MON trAdv_CFL_v_max              =   6.2954801222777E-03
(PID.TID 0000.0001) %MON trAdv_CFL_w_max              =   5.6882883201671E-03
(PID.TID 0000.0001) %MON advcfl_uvel_max              =   3.9803812432043E-03
(PID.TID 0000.0001) %MON advcfl_vvel_max              =   6.2954801222777E-03
(PID.TID 0000.0001) %MON advcfl_wvel_max              =   5.6882883201671E-03
(PID.TID 0000.0001) %MON advcfl_W_hf_max              =   6.4776085242637E-03
(PID.TID 0000.0001) %MON pe_b_mean                    =   9.0993583411491E-05
(PID.TID 0000.0001) %MON ke_max                       =   5.7642294081325E-05
(PID.TID 0000.0001) %MON ke_mean                      =   3.3038791579703E-06
(PID.TID 0000.0001) %MON ke_vol                       =   1.8654725220387E+09
(PID.TID 0000.0001) %MON vort_r_min                   =  -1.3628643900449E-04
(PID.TID 0000.0001) %MON vort_r_max                   =   1.3806510230688E-04
(PID.TID 0000.0001) %MON vort_a_mean                  =   1.0000782634673E-04
(PID.TID 0000.0001) %MON vort_a_sd                    =   2.2074336815057E-05
(PID.TID 0000.0001) %MON vort_p_mean                  =   1.1991916022492E-04
(PID.TID 0000.0001) %MON vort_p_sd                    =   7.5094194808284E-05
(PID.TID 0000.0001) %MON surfExpan_theta_mean         =  -2.1076989690474E-13
(PID.TID 0000.0001) %MON surfExpan_salt_mean          =  -9.8291549248772E-14
(PID.TID 0000.0001) // =======================================================
(PID.TID 0000.0001) // End MONITOR dynamic field statistics
(PID.TID 0000.0001) // =======================================================
(PID.TID 0000.0001) // =======================================================
(PID.TID 0000.0001) // Begin MONITOR dynamic field statistics
(PID.TID 0000.0001) // =======================================================
(PID.TID 0000.0001) %MON time_tsnumber                =                155520
(PID.TID 0000.0001) %MON time_secondsf                =   1.2441600000000E+07
(PID.TID 0000.0001) %MON dynstat_eta_max              =   2.1189820233633E-01
(PID.TID 0000.0001) %MON dynstat_eta_min              =  -1.3470738849271E-01
(PID.TID 0000.0001) %MON dynstat_eta_mean             =   1.6700202692739E-16
(PID.TID 0000.0001) %MON dynstat_eta_sd               =   6.2865086535697E-02
(PID.TID 0000.0001) %MON dynstat_eta_del2             =   1.3686920442636E-03
(PID.TID 0000.0001) %MON dynstat_uvel_max             =   1.1959037598813E-02
(PID.TID 0000.0001) %MON dynstat_uvel_min             =  -1.0995073982174E-02
(PID.TID 0000.0001) %MON dynstat_uvel_mean            =  -3.4682114386307E-12
(PID.TID 0000.0001) %MON dynstat_uvel_sd              =   2.4364371859087E-03
(PID.TID 0000.0001) %MON dynstat_uvel_del2            =   1.2247767446498E-05
(PID.TID 0000.0001) %MON dynstat_vvel_max             =   5.4570337618538E-03
(PID.TID 0000.0001) %MON dynstat_vvel_min             =  -5.9740375146854E-03
(PID.TID 0000.0001) %MON dynstat_vvel_mean            =   6.3849946016240E-12
(PID.TID 0000.0001) %MON dynstat_vvel_sd              =   8.6931443623829E-04
(PID.TID 0000.0001) %MON dynstat_vvel_del2            =   1.0982239659178E-05
(PID.TID 0000.0001) %MON dynstat_wvel_max             =   7.4166284268719E-04
(PID.TID 0000.0001) %MON dynstat_wvel_min             =  -8.0656469153154E-04
(PID.TID 0000.0001) %MON dynstat_wvel_mean            =   5.0097641093594E-12
(PID.TID 0000.0001) %MON dynstat_wvel_sd              =   4.5898634536639E-05
(PID.TID 0000.0001) %MON dynstat_wvel_del2            =   1.3825730904492E-06
(PID.TID 0000.0001) %MON dynstat_theta_max            =  -2.1003724503300E+00
(PID.TID 0000.0001) %MON dynstat_theta_min            =  -2.2206056689435E+00
(PID.TID 0000.0001) %MON dynstat_theta_mean           =  -2.1192211608857E+00
(PID.TID 0000.0001) %MON dynstat_theta_sd             =   2.1706953955749E-02
(PID.TID 0000.0001) %MON dynstat_theta_del2           =   3.6248367199806E-05
(PID.TID 0000.0001) %MON dynstat_salt_max             =   3.4499967692287E+01
(PID.TID 0000.0001) %MON dynstat_salt_min             =   3.4463307508978E+01
(PID.TID 0000.0001) %MON dynstat_salt_mean            =   3.4492780412585E+01
(PID.TID 0000.0001) %MON dynstat_salt_sd              =   8.7234693900345E-03
(PID.TID 0000.0001) %MON dynstat_salt_del2            =   2.4608118814906E-06
(PID.TID 0000.0001) %MON trAdv_CFL_u_max              =   4.1476478536822E-03
(PID.TID 0000.0001) %MON trAdv_CFL_v_max              =   5.6753356389511E-03
(PID.TID 0000.0001) %MON trAdv_CFL_w_max              =   5.8659250293203E-03
(PID.TID 0000.0001) %MON advcfl_uvel_max              =   4.1476478536822E-03
(PID.TID 0000.0001) %MON advcfl_vvel_max              =   5.6753356389511E-03
(PID.TID 0000.0001) %MON advcfl_wvel_max              =   5.8659250293203E-03
(PID.TID 0000.0001) %MON advcfl_W_hf_max              =   5.8659250293203E-03
(PID.TID 0000.0001) %MON pe_b_mean                    =   9.0979265176618E-05
(PID.TID 0000.0001) %MON ke_max                       =   5.0145510355971E-05
(PID.TID 0000.0001) %MON ke_mean                      =   3.1823109185754E-06
(PID.TID 0000.0001) %MON ke_vol                       =   1.8654725220387E+09
(PID.TID 0000.0001) %MON vort_r_min                   =  -1.4201357148591E-04
(PID.TID 0000.0001) %MON vort_r_max                   =   1.4564236155660E-04
(PID.TID 0000.0001) %MON vort_a_mean                  =   1.0000782634673E-04
(PID.TID 0000.0001) %MON vort_a_sd                    =   2.1311640154778E-05
(PID.TID 0000.0001) %MON vort_p_mean                  =   1.1991916022492E-04
(PID.TID 0000.0001) %MON vort_p_sd                    =   7.3851068196094E-05
(PID.TID 0000.0001) %MON surfExpan_theta_mean         =  -1.9889447745905E-13
(PID.TID 0000.0001) %MON surfExpan_salt_mean          =  -9.5793672173474E-14
(PID.TID 0000.0001) // =======================================================
(PID.TID 0000.0001) // End MONITOR dynamic field statistics
(PID.TID 0000.0001) // =======================================================
(PID.TID 0000.0001) // =======================================================
(PID.TID 0000.0001) // Begin MONITOR dynamic field statistics
(PID.TID 0000.0001) // =======================================================
(PID.TID 0000.0001) %MON time_tsnumber                =                158760
(PID.TID 0000.0001) %MON time_secondsf                =   1.2700800000000E+07
(PID.TID 0000.0001) %MON dynstat_eta_max              =   2.1188894582611E-01
(PID.TID 0000.0001) %MON dynstat_eta_min              =  -1.3469793878161E-01
(PID.TID 0000.0001) %MON dynstat_eta_mean             =   1.5146695465507E-16
(PID.TID 0000.0001) %MON dynstat_eta_sd               =   6.2860598392251E-02
(PID.TID 0000.0001) %MON dynstat_eta_del2             =   1.3686091948215E-03
(PID.TID 0000.0001) %MON dynstat_uvel_max             =   9.1021126318476E-03
(PID.TID 0000.0001) %MON dynstat_uvel_min             =  -1.0786484932147E-02
(PID.TID 0000.0001) %MON dynstat_uvel_mean            =   1.2347189822129E-11
(PID.TID 0000.0001) %MON dynstat_uvel_sd              =   2.4083304692206E-03
(PID.TID 0000.0001) %MON dynstat_uvel_del2            =   1.2121160148541E-05
(PID.TID 0000.0001) %MON dynstat_vvel_max             =   4.6404118623645E-03
(PID.TID 0000.0001) %MON dynstat_vvel_min             =  -5.1897823195401E-03
(PID.TID 0000.0001) %MON dynstat_vvel_mean            =   6.0664703984759E-12
(PID.TID 0000.0001) %MON dynstat_vvel_sd              =   8.3987263042316E-04
(PID.TID 0000.0001) %MON dynstat_vvel_del2            =   1.1165056977285E-05
(PID.TID 0000.0001) %MON dynstat_wvel_max             =   7.3689848695122E-04
(PID.TID 0000.0001) %MON dynstat_wvel_min             =  -8.5553115355289E-04
(PID.TID 0000.0001) %MON dynstat_wvel_mean            =   4.5233243557790E-12
(PID.TID 0000.0001) %MON dynstat_wvel_sd              =   4.4046691310103E-05
(PID.TID 0000.0001) %MON dynstat_wvel_del2            =   1.3788577791001E-06
(PID.TID 0000.0001) %MON dynstat_theta_max            =  -2.1004353543865E+00
(PID.TID 0000.0001) %MON dynstat_theta_min            =  -2.2217481933587E+00
(PID.TID 0000.0001) %MON dynstat_theta_mean           =  -2.1194309856742E+00
(PID.TID 0000.0001) %MON dynstat_theta_sd             =   2.1869665361015E-02
(PID.TID 0000.0001) %MON dynstat_theta_del2           =   3.7939022460311E-05
(PID.TID 0000.0001) %MON dynstat_salt_max             =   3.4499967557137E+01
(PID.TID 0000.0001) %MON dynstat_salt_min             =   3.4463168287842E+01
(PID.TID 0000.0001) %MON dynstat_salt_mean            =   3.4492708541492E+01
(PID.TID 0000.0001) %MON dynstat_salt_sd              =   8.7757639027685E-03
(PID.TID 0000.0001) %MON dynstat_salt_del2            =   2.5250165077189E-06
(PID.TID 0000.0001) %MON trAdv_CFL_u_max              =   3.7409817226458E-03
(PID.TID 0000.0001) %MON trAdv_CFL_v_max              =   4.9302932035631E-03
(PID.TID 0000.0001) %MON trAdv_CFL_w_max              =   6.2220447531119E-03
(PID.TID 0000.0001) %MON advcfl_uvel_max              =   3.7409817226458E-03
(PID.TID 0000.0001) %MON advcfl_vvel_max              =   4.9302932035631E-03
(PID.TID 0000.0001) %MON advcfl_wvel_max              =   6.2220447531119E-03
(PID.TID 0000.0001) %MON advcfl_W_hf_max              =   6.2220447531119E-03
(PID.TID 0000.0001) %MON pe_b_mean                    =   9.0965765702805E-05
(PID.TID 0000.0001) %MON ke_max                       =   4.5084620994956E-05
(PID.TID 0000.0001) %MON ke_mean                      =   3.0945638017705E-06
(PID.TID 0000.0001) %MON ke_vol                       =   1.8654725220387E+09
(PID.TID 0000.0001) %MON vort_r_min                   =  -1.3379637908731E-04
(PID.TID 0000.0001) %MON vort_r_max                   =   1.1704831597283E-04
(PID.TID 0000.0001) %MON vort_a_mean                  =   1.0000782634673E-04
(PID.TID 0000.0001) %MON vort_a_sd                    =   2.0678325532790E-05
(PID.TID 0000.0001) %MON vort_p_mean                  =   1.1991916022492E-04
(PID.TID 0000.0001) %MON vort_p_sd                    =   7.3210996993252E-05
(PID.TID 0000.0001) %MON surfExpan_theta_mean         =  -2.0405550904221E-13
(PID.TID 0000.0001) %MON surfExpan_salt_mean          =  -9.2935129127095E-14
(PID.TID 0000.0001) // =======================================================
(PID.TID 0000.0001) // End MONITOR dynamic field statistics
(PID.TID 0000.0001) // =======================================================
(PID.TID 0000.0001) // =======================================================
(PID.TID 0000.0001) // Begin MONITOR dynamic field statistics
(PID.TID 0000.0001) // =======================================================
(PID.TID 0000.0001) %MON time_tsnumber                =                162000
(PID.TID 0000.0001) %MON time_secondsf                =   1.2960000000000E+07
(PID.TID 0000.0001) %MON dynstat_eta_max              =   2.1187997896260E-01
(PID.TID 0000.0001) %MON dynstat_eta_min              =  -1.3469494491212E-01
(PID.TID 0000.0001) %MON dynstat_eta_mean             =   1.4037047446056E-16
(PID.TID 0000.0001) %MON dynstat_eta_sd               =   6.2856335899631E-02
(PID.TID 0000.0001) %MON dynstat_eta_del2             =   1.3685402082811E-03
(PID.TID 0000.0001) %MON dynstat_uvel_max             =   8.9252686094057E-03
(PID.TID 0000.0001) %MON dynstat_uvel_min             =  -1.0552405446990E-02
(PID.TID 0000.0001) %MON dynstat_uvel_mean            =  -1.3154972530984E-12
(PID.TID 0000.0001) %MON dynstat_uvel_sd              =   2.3818105475399E-03
(PID.TID 0000.0001) %MON dynstat_uvel_del2            =   1.1511121565159E-05
(PID.TID 0000.0001) %MON dynstat_vvel_max             =   4.4155175185878E-03
(PID.TID 0000.0001) %MON dynstat_vvel_min             =  -4.7609953988881E-03
(PID.TID 0000.0001) %MON dynstat_vvel_mean            =   8.6251052463413E-12
(PID.TID 0000.0001) %MON dynstat_vvel_sd              =   8.1326850759201E-04
(PID.TID 0000.0001) %MON dynstat_vvel_del2            =   1.1136259828107E-05
(PID.TID 0000.0001) %MON dynstat_wvel_max             =   7.2129886569362E-04
(PID.TID 0000.0001) %MON dynstat_wvel_min             =  -7.2393700190814E-04
(PID.TID 0000.0001) %MON dynstat_wvel_mean            =   4.5315172497006E-12
(PID.TID 0000.0001) %MON dynstat_wvel_sd              =   3.9915396554882E-05
(PID.TID 0000.0001) %MON dynstat_wvel_del2            =   1.2146772273725E-06
(PID.TID 0000.0001) %MON dynstat_theta_max            =  -2.0998414423341E+00
(PID.TID 0000.0001) %MON dynstat_theta_min            =  -2.2230698898922E+00
(PID.TID 0000.0001) %MON dynstat_theta_mean           =  -2.1196378489497E+00
(PID.TID 0000.0001) %MON dynstat_theta_sd             =   2.2030864926074E-02
(PID.TID 0000.0001) %MON dynstat_theta_del2           =   3.8140759546253E-05
(PID.TID 0000.0001) %MON dynstat_salt_max             =   3.4499966809209E+01
(PID.TID 0000.0001) %MON dynstat_salt_min             =   3.4462877850789E+01
(PID.TID 0000.0001) %MON dynstat_salt_mean            =   3.4492637890455E+01
(PID.TID 0000.0001) %MON dynstat_salt_sd              =   8.8271331458981E-03
(PID.TID 0000.0001) %MON dynstat_salt_del2            =   2.5283977535426E-06
(PID.TID 0000.0001) %MON trAdv_CFL_u_max              =   3.7910636736809E-03
(PID.TID 0000.0001) %MON trAdv_CFL_v_max              =   4.5229456289437E-03
(PID.TID 0000.0001) %MON trAdv_CFL_w_max              =   5.2649963775137E-03
(PID.TID 0000.0001) %MON advcfl_uvel_max              =   3.6597979930874E-03
(PID.TID 0000.0001) %MON advcfl_vvel_max              =   4.5229456289437E-03
(PID.TID 0000.0001) %MON advcfl_wvel_max              =   5.2649963775137E-03
(PID.TID 0000.0001) %MON advcfl_W_hf_max              =   5.2649963775137E-03
(PID.TID 0000.0001) %MON pe_b_mean                    =   9.0952836717014E-05
(PID.TID 0000.0001) %MON ke_max                       =   4.1305677161686E-05
(PID.TID 0000.0001) %MON ke_mean                      =   3.0140296739371E-06
(PID.TID 0000.0001) %MON ke_vol                       =   1.8654725220387E+09
(PID.TID 0000.0001) %MON vort_r_min                   =  -1.2617591498040E-04
(PID.TID 0000.0001) %MON vort_r_max                   =   8.8775493590207E-05
(PID.TID 0000.0001) %MON vort_a_mean                  =   1.0000782634673E-04
(PID.TID 0000.0001) %MON vort_a_sd                    =   2.0305736931328E-05
(PID.TID 0000.0001) %MON vort_p_mean                  =   1.1991916022492E-04
(PID.TID 0000.0001) %MON vort_p_sd                    =   7.2968968522834E-05
(PID.TID 0000.0001) %MON surfExpan_theta_mean         =  -1.9813293399502E-13
(PID.TID 0000.0001) %MON surfExpan_salt_mean          =  -9.3943820007420E-14
(PID.TID 0000.0001) // =======================================================
(PID.TID 0000.0001) // End MONITOR dynamic field statistics
(PID.TID 0000.0001) // =======================================================
(PID.TID 0000.0001) %CHECKPOINT    164160 0000164160
(PID.TID 0000.0001) // =======================================================
(PID.TID 0000.0001) // Begin MONITOR dynamic field statistics
(PID.TID 0000.0001) // =======================================================
(PID.TID 0000.0001) %MON time_tsnumber                =                165240
(PID.TID 0000.0001) %MON time_secondsf                =   1.3219200000000E+07
(PID.TID 0000.0001) %MON dynstat_eta_max              =   2.1187135377805E-01
(PID.TID 0000.0001) %MON dynstat_eta_min              =  -1.3468332335635E-01
(PID.TID 0000.0001) %MON dynstat_eta_mean             =   1.3204811431468E-16
(PID.TID 0000.0001) %MON dynstat_eta_sd               =   6.2852262459033E-02
(PID.TID 0000.0001) %MON dynstat_eta_del2             =   1.3684565307726E-03
(PID.TID 0000.0001) %MON dynstat_uvel_max             =   9.3543911861991E-03
(PID.TID 0000.0001) %MON dynstat_uvel_min             =  -1.0681861934358E-02
(PID.TID 0000.0001) %MON dynstat_uvel_mean            =   1.5897711503967E-11
(PID.TID 0000.0001) %MON dynstat_uvel_sd              =   2.3585631105439E-03
(PID.TID 0000.0001) %MON dynstat_uvel_del2            =   1.1946194905472E-05
(PID.TID 0000.0001) %MON dynstat_vvel_max             =   4.3575987508718E-03
(PID.TID 0000.0001) %MON dynstat_vvel_min             =  -5.2165541651969E-03
(PID.TID 0000.0001) %MON dynstat_vvel_mean            =   6.7346925423216E-12
(PID.TID 0000.0001) %MON dynstat_vvel_sd              =   8.0242769923336E-04
(PID.TID 0000.0001) %MON dynstat_vvel_del2            =   1.1529915956936E-05
(PID.TID 0000.0001) %MON dynstat_wvel_max             =   7.6264867372114E-04
(PID.TID 0000.0001) %MON dynstat_wvel_min             =  -8.0805158347964E-04
(PID.TID 0000.0001) %MON dynstat_wvel_mean            =   4.2316295880800E-12
(PID.TID 0000.0001) %MON dynstat_wvel_sd              =   4.1005980184383E-05
(PID.TID 0000.0001) %MON dynstat_wvel_del2            =   1.2952660370060E-06
(PID.TID 0000.0001) %MON dynstat_theta_max            =  -2.1005099937700E+00
(PID.TID 0000.0001) %MON dynstat_theta_min            =  -2.2245934205118E+00
(PID.TID 0000.0001) %MON dynstat_theta_mean           =  -2.1198403788130E+00
(PID.TID 0000.0001) %MON dynstat_theta_sd             =   2.2180818831567E-02
(PID.TID 0000.0001) %MON dynstat_theta_del2           =   4.0427214465085E-05
(PID.TID 0000.0001) %MON dynstat_salt_max             =   3.4499966695268E+01
(PID.TID 0000.0001) %MON dynstat_salt_min             =   3.4462473955876E+01
(PID.TID 0000.0001) %MON dynstat_salt_mean            =   3.4492569024572E+01
(PID.TID 0000.0001) %MON dynstat_salt_sd              =   8.8759384617457E-03
(PID.TID 0000.0001) %MON dynstat_salt_del2            =   2.6949862391354E-06
(PID.TID 0000.0001) %MON trAdv_CFL_u_max              =   4.2290799661796E-03
(PID.TID 0000.0001) %MON trAdv_CFL_v_max              =   4.9557264569370E-03
(PID.TID 0000.0001) %MON trAdv_CFL_w_max              =   5.8786677588189E-03
(PID.TID 0000.0001) %MON advcfl_uvel_max              =   3.7046962482807E-03
(PID.TID 0000.0001) %MON advcfl_vvel_max              =   4.9557264569370E-03
(PID.TID 0000.0001) %MON advcfl_wvel_max              =   5.8767387889428E-03
(PID.TID 0000.0001) %MON advcfl_W_hf_max              =   5.8767387889428E-03
(PID.TID 0000.0001) %MON pe_b_mean                    =   9.0940377173501E-05
(PID.TID 0000.0001) %MON ke_max                       =   4.9966529193610E-05
(PID.TID 0000.0001) %MON ke_mean                      =   2.9533937368671E-06
(PID.TID 0000.0001) %MON ke_vol                       =   1.8654725220387E+09
(PID.TID 0000.0001) %MON vort_r_min                   =  -1.3821717888112E-04
(PID.TID 0000.0001) %MON vort_r_max                   =   1.1108339533611E-04
(PID.TID 0000.0001) %MON vort_a_mean                  =   1.0000782634673E-04
(PID.TID 0000.0001) %MON vort_a_sd                    =   2.0045888335288E-05
(PID.TID 0000.0001) %MON vort_p_mean                  =   1.1991916022492E-04
(PID.TID 0000.0001) %MON vort_p_sd                    =   7.2467529138415E-05
(PID.TID 0000.0001) %MON surfExpan_theta_mean         =  -1.9578328437277E-13
(PID.TID 0000.0001) %MON surfExpan_salt_mean          =  -8.8126345041440E-14
(PID.TID 0000.0001) // =======================================================
(PID.TID 0000.0001) // End MONITOR dynamic field statistics
(PID.TID 0000.0001) // =======================================================
(PID.TID 0000.0001) // =======================================================
(PID.TID 0000.0001) // Begin MONITOR dynamic field statistics
(PID.TID 0000.0001) // =======================================================
(PID.TID 0000.0001) %MON time_tsnumber                =                168480
(PID.TID 0000.0001) %MON time_secondsf                =   1.3478400000000E+07
(PID.TID 0000.0001) %MON dynstat_eta_max              =   2.1186254221406E-01
(PID.TID 0000.0001) %MON dynstat_eta_min              =  -1.3467801757169E-01
(PID.TID 0000.0001) %MON dynstat_eta_mean             =   1.4258977049946E-16
(PID.TID 0000.0001) %MON dynstat_eta_sd               =   6.2848590084905E-02
(PID.TID 0000.0001) %MON dynstat_eta_del2             =   1.3683740440540E-03
(PID.TID 0000.0001) %MON dynstat_uvel_max             =   8.7941521973411E-03
(PID.TID 0000.0001) %MON dynstat_uvel_min             =  -1.0453990197257E-02
(PID.TID 0000.0001) %MON dynstat_uvel_mean            =   2.9369013585431E-11
(PID.TID 0000.0001) %MON dynstat_uvel_sd              =   2.3426581064047E-03
(PID.TID 0000.0001) %MON dynstat_uvel_del2            =   1.1983044341794E-05
(PID.TID 0000.0001) %MON dynstat_vvel_max             =   3.0848330434740E-03
(PID.TID 0000.0001) %MON dynstat_vvel_min             =  -4.7258296201904E-03
(PID.TID 0000.0001) %MON dynstat_vvel_mean            =   5.9994888409005E-12
(PID.TID 0000.0001) %MON dynstat_vvel_sd              =   7.8237122176131E-04
(PID.TID 0000.0001) %MON dynstat_vvel_del2            =   1.0859384594933E-05
(PID.TID 0000.0001) %MON dynstat_wvel_max             =   6.7757455702893E-04
(PID.TID 0000.0001) %MON dynstat_wvel_min             =  -7.2804400273750E-04
(PID.TID 0000.0001) %MON dynstat_wvel_mean            =   3.6754330103386E-12
(PID.TID 0000.0001) %MON dynstat_wvel_sd              =   4.2015046025629E-05
(PID.TID 0000.0001) %MON dynstat_wvel_del2            =   1.4013967545956E-06
(PID.TID 0000.0001) %MON dynstat_theta_max            =  -2.1005232493095E+00
(PID.TID 0000.0001) %MON dynstat_theta_min            =  -2.2266727450754E+00
(PID.TID 0000.0001) %MON dynstat_theta_mean           =  -2.1200368290171E+00
(PID.TID 0000.0001) %MON dynstat_theta_sd             =   2.2310228674451E-02
(PID.TID 0000.0001) %MON dynstat_theta_del2           =   3.8376970202493E-05
(PID.TID 0000.0001) %MON dynstat_salt_max             =   3.4499966681774E+01
(PID.TID 0000.0001) %MON dynstat_salt_min             =   3.4462616935927E+01
(PID.TID 0000.0001) %MON dynstat_salt_mean            =   3.4492502663372E+01
(PID.TID 0000.0001) %MON dynstat_salt_sd              =   8.9205458093369E-03
(PID.TID 0000.0001) %MON dynstat_salt_del2            =   2.5662607897425E-06
(PID.TID 0000.0001) %MON trAdv_CFL_u_max              =   3.7590842108580E-03
(PID.TID 0000.0001) %MON trAdv_CFL_v_max              =   4.4895381391809E-03
(PID.TID 0000.0001) %MON trAdv_CFL_w_max              =   5.2948654744545E-03
(PID.TID 0000.0001) %MON advcfl_uvel_max              =   3.6256654973951E-03
(PID.TID 0000.0001) %MON advcfl_vvel_max              =   4.4895381391809E-03
(PID.TID 0000.0001) %MON advcfl_wvel_max              =   5.2948654744545E-03
(PID.TID 0000.0001) %MON advcfl_W_hf_max              =   5.2948654744545E-03
(PID.TID 0000.0001) %MON pe_b_mean                    =   9.0929066289880E-05
(PID.TID 0000.0001) %MON ke_max                       =   5.0945156955021E-05
(PID.TID 0000.0001) %MON ke_mean                      =   2.9033537367375E-06
(PID.TID 0000.0001) %MON ke_vol                       =   1.8654725220387E+09
(PID.TID 0000.0001) %MON vort_r_min                   =  -1.3619285365626E-04
(PID.TID 0000.0001) %MON vort_r_max                   =   9.5254460638534E-05
(PID.TID 0000.0001) %MON vort_a_mean                  =   1.0000782634673E-04
(PID.TID 0000.0001) %MON vort_a_sd                    =   1.9710205354096E-05
(PID.TID 0000.0001) %MON vort_p_mean                  =   1.1991916022492E-04
(PID.TID 0000.0001) %MON vort_p_sd                    =   7.2163575965133E-05
(PID.TID 0000.0001) %MON surfExpan_theta_mean         =  -1.9210062554620E-13
(PID.TID 0000.0001) %MON surfExpan_salt_mean          =  -8.2528118925301E-14
(PID.TID 0000.0001) // =======================================================
(PID.TID 0000.0001) // End MONITOR dynamic field statistics
(PID.TID 0000.0001) // =======================================================
(PID.TID 0000.0001) // =======================================================
(PID.TID 0000.0001) // Begin MONITOR dynamic field statistics
(PID.TID 0000.0001) // =======================================================
(PID.TID 0000.0001) %MON time_tsnumber                =                171720
(PID.TID 0000.0001) %MON time_secondsf                =   1.3737600000000E+07
(PID.TID 0000.0001) %MON dynstat_eta_max              =   2.1185358709509E-01
(PID.TID 0000.0001) %MON dynstat_eta_min              =  -1.3467208232378E-01
(PID.TID 0000.0001) %MON dynstat_eta_mean             =   1.4425424252864E-16
(PID.TID 0000.0001) %MON dynstat_eta_sd               =   6.2845057693248E-02
(PID.TID 0000.0001) %MON dynstat_eta_del2             =   1.3682882745858E-03
(PID.TID 0000.0001) %MON dynstat_uvel_max             =   9.6699063315232E-03
(PID.TID 0000.0001) %MON dynstat_uvel_min             =  -1.0490870674709E-02
(PID.TID 0000.0001) %MON dynstat_uvel_mean            =   1.0299971608375E-11
(PID.TID 0000.0001) %MON dynstat_uvel_sd              =   2.3276971784008E-03
(PID.TID 0000.0001) %MON dynstat_uvel_del2            =   1.1237345820894E-05
(PID.TID 0000.0001) %MON dynstat_vvel_max             =   3.0129703507040E-03
(PID.TID 0000.0001) %MON dynstat_vvel_min             =  -4.7467373831579E-03
(PID.TID 0000.0001) %MON dynstat_vvel_mean            =   5.7653761400864E-12
(PID.TID 0000.0001) %MON dynstat_vvel_sd              =   7.7623410456461E-04
(PID.TID 0000.0001) %MON dynstat_vvel_del2            =   1.0854517172402E-05
(PID.TID 0000.0001) %MON dynstat_wvel_max             =   6.2638484032169E-04
(PID.TID 0000.0001) %MON dynstat_wvel_min             =  -7.0805629101751E-04
(PID.TID 0000.0001) %MON dynstat_wvel_mean            =   3.7648985924128E-12
(PID.TID 0000.0001) %MON dynstat_wvel_sd              =   3.8158939136164E-05
(PID.TID 0000.0001) %MON dynstat_wvel_del2            =   1.1980964561857E-06
(PID.TID 0000.0001) %MON dynstat_theta_max            =  -2.1005373072979E+00
(PID.TID 0000.0001) %MON dynstat_theta_min            =  -2.2271052452314E+00
(PID.TID 0000.0001) %MON dynstat_theta_mean           =  -2.1202313184251E+00
(PID.TID 0000.0001) %MON dynstat_theta_sd             =   2.2455196268310E-02
(PID.TID 0000.0001) %MON dynstat_theta_del2           =   4.0419261435682E-05
(PID.TID 0000.0001) %MON dynstat_salt_max             =   3.4499966235720E+01
(PID.TID 0000.0001) %MON dynstat_salt_min             =   3.4461708434877E+01
(PID.TID 0000.0001) %MON dynstat_salt_mean            =   3.4492437109955E+01
(PID.TID 0000.0001) %MON dynstat_salt_sd              =   8.9637247080109E-03
(PID.TID 0000.0001) %MON dynstat_salt_del2            =   2.6976433713335E-06
(PID.TID 0000.0001) %MON trAdv_CFL_u_max              =   3.6384564290969E-03
(PID.TID 0000.0001) %MON trAdv_CFL_v_max              =   4.5094005140000E-03
(PID.TID 0000.0001) %MON trAdv_CFL_w_max              =   5.1495002983091E-03
(PID.TID 0000.0001) %MON advcfl_uvel_max              =   3.6384564290969E-03
(PID.TID 0000.0001) %MON advcfl_vvel_max              =   4.5094005140000E-03
(PID.TID 0000.0001) %MON advcfl_wvel_max              =   5.1495002983091E-03
(PID.TID 0000.0001) %MON advcfl_W_hf_max              =   5.1495002983091E-03
(PID.TID 0000.0001) %MON pe_b_mean                    =   9.0918196899602E-05
(PID.TID 0000.0001) %MON ke_max                       =   5.2967167042125E-05
(PID.TID 0000.0001) %MON ke_mean                      =   2.8655964182595E-06
(PID.TID 0000.0001) %MON ke_vol                       =   1.8654725220387E+09
(PID.TID 0000.0001) %MON vort_r_min                   =  -1.3903521639659E-04
(PID.TID 0000.0001) %MON vort_r_max                   =   1.1483013768684E-04
(PID.TID 0000.0001) %MON vort_a_mean                  =   1.0000782634673E-04
(PID.TID 0000.0001) %MON vort_a_sd                    =   1.9385917785494E-05
(PID.TID 0000.0001) %MON vort_p_mean                  =   1.1991916022492E-04
(PID.TID 0000.0001) %MON vort_p_sd                    =   7.1379412952529E-05
(PID.TID 0000.0001) %MON surfExpan_theta_mean         =  -1.8407929599827E-13
(PID.TID 0000.0001) %MON surfExpan_salt_mean          =  -7.9568104934373E-14
(PID.TID 0000.0001) // =======================================================
(PID.TID 0000.0001) // End MONITOR dynamic field statistics
(PID.TID 0000.0001) // =======================================================
(PID.TID 0000.0001) // =======================================================
(PID.TID 0000.0001) // Begin MONITOR dynamic field statistics
(PID.TID 0000.0001) // =======================================================
(PID.TID 0000.0001) %MON time_tsnumber                =                174960
(PID.TID 0000.0001) %MON time_secondsf                =   1.3996800000000E+07
(PID.TID 0000.0001) %MON dynstat_eta_max              =   2.1184508344863E-01
(PID.TID 0000.0001) %MON dynstat_eta_min              =  -1.3466657692448E-01
(PID.TID 0000.0001) %MON dynstat_eta_mean             =   1.5590554673288E-16
(PID.TID 0000.0001) %MON dynstat_eta_sd               =   6.2841529799141E-02
(PID.TID 0000.0001) %MON dynstat_eta_del2             =   1.3682025141410E-03
(PID.TID 0000.0001) %MON dynstat_uvel_max             =   1.0413192489295E-02
(PID.TID 0000.0001) %MON dynstat_uvel_min             =  -9.8064094446607E-03
(PID.TID 0000.0001) %MON dynstat_uvel_mean            =   1.4209489318820E-11
(PID.TID 0000.0001) %MON dynstat_uvel_sd              =   2.3234718066501E-03
(PID.TID 0000.0001) %MON dynstat_uvel_del2            =   1.1549789016490E-05
(PID.TID 0000.0001) %MON dynstat_vvel_max             =   3.5702016235953E-03
(PID.TID 0000.0001) %MON dynstat_vvel_min             =  -4.3328640415857E-03
(PID.TID 0000.0001) %MON dynstat_vvel_mean            =   5.8264192464453E-12
(PID.TID 0000.0001) %MON dynstat_vvel_sd              =   7.6743572725926E-04
(PID.TID 0000.0001) %MON dynstat_vvel_del2            =   1.0516628910459E-05
(PID.TID 0000.0001) %MON dynstat_wvel_max             =   6.0599687034129E-04
(PID.TID 0000.0001) %MON dynstat_wvel_min             =  -7.3253733668679E-04
(PID.TID 0000.0001) %MON dynstat_wvel_mean            =   3.9796125738099E-12
(PID.TID 0000.0001) %MON dynstat_wvel_sd              =   3.9115977865990E-05
(PID.TID 0000.0001) %MON dynstat_wvel_del2            =   1.2272962942484E-06
(PID.TID 0000.0001) %MON dynstat_theta_max            =  -2.1005534255919E+00
(PID.TID 0000.0001) %MON dynstat_theta_min            =  -2.2267879437787E+00
(PID.TID 0000.0001) %MON dynstat_theta_mean           =  -2.1204271812512E+00
(PID.TID 0000.0001) %MON dynstat_theta_sd             =   2.2611897676163E-02
(PID.TID 0000.0001) %MON dynstat_theta_del2           =   4.0602528879231E-05
(PID.TID 0000.0001) %MON dynstat_salt_max             =   3.4499966077543E+01
(PID.TID 0000.0001) %MON dynstat_salt_min             =   3.4460924993127E+01
(PID.TID 0000.0001) %MON dynstat_salt_mean            =   3.4492370990593E+01
(PID.TID 0000.0001) %MON dynstat_salt_sd              =   9.0088131884422E-03
(PID.TID 0000.0001) %MON dynstat_salt_del2            =   2.6463853317077E-06
(PID.TID 0000.0001) %MON trAdv_CFL_u_max              =   3.6115159870800E-03
(PID.TID 0000.0001) %MON trAdv_CFL_v_max              =   4.1162208395064E-03
(PID.TID 0000.0001) %MON trAdv_CFL_w_max              =   5.3275442668130E-03
(PID.TID 0000.0001) %MON advcfl_uvel_max              =   3.6115159870800E-03
(PID.TID 0000.0001) %MON advcfl_vvel_max              =   4.1162208395064E-03
(PID.TID 0000.0001) %MON advcfl_wvel_max              =   5.3275442668130E-03
(PID.TID 0000.0001) %MON advcfl_W_hf_max              =   5.3275442668130E-03
(PID.TID 0000.0001) %MON pe_b_mean                    =   9.0907295602981E-05
(PID.TID 0000.0001) %MON ke_max                       =   4.6307844697456E-05
(PID.TID 0000.0001) %MON ke_mean                      =   2.8501069500626E-06
(PID.TID 0000.0001) %MON ke_vol                       =   1.8654725220387E+09
(PID.TID 0000.0001) %MON vort_r_min                   =  -1.2995002775668E-04
(PID.TID 0000.0001) %MON vort_r_max                   =   1.2365666081038E-04
(PID.TID 0000.0001) %MON vort_a_mean                  =   1.0000782634673E-04
(PID.TID 0000.0001) %MON vort_a_sd                    =   1.9282392331310E-05
(PID.TID 0000.0001) %MON vort_p_mean                  =   1.1991916022492E-04
(PID.TID 0000.0001) %MON vort_p_sd                    =   7.0510025286774E-05
(PID.TID 0000.0001) %MON surfExpan_theta_mean         =  -1.9455529740134E-13
(PID.TID 0000.0001) %MON surfExpan_salt_mean          =  -8.4307407070780E-14
(PID.TID 0000.0001) // =======================================================
(PID.TID 0000.0001) // End MONITOR dynamic field statistics
(PID.TID 0000.0001) // =======================================================
(PID.TID 0000.0001) // =======================================================
(PID.TID 0000.0001) // Begin MONITOR dynamic field statistics
(PID.TID 0000.0001) // =======================================================
(PID.TID 0000.0001) %MON time_tsnumber                =                178200
(PID.TID 0000.0001) %MON time_secondsf                =   1.4256000000000E+07
(PID.TID 0000.0001) %MON dynstat_eta_max              =   2.1183619507248E-01
(PID.TID 0000.0001) %MON dynstat_eta_min              =  -1.3465978644927E-01
(PID.TID 0000.0001) %MON dynstat_eta_mean             =   1.5007989463076E-16
(PID.TID 0000.0001) %MON dynstat_eta_sd               =   6.2837620970288E-02
(PID.TID 0000.0001) %MON dynstat_eta_del2             =   1.3681311424268E-03
(PID.TID 0000.0001) %MON dynstat_uvel_max             =   1.0820477069148E-02
(PID.TID 0000.0001) %MON dynstat_uvel_min             =  -9.0913955039878E-03
(PID.TID 0000.0001) %MON dynstat_uvel_mean            =   8.4070179890965E-12
(PID.TID 0000.0001) %MON dynstat_uvel_sd              =   2.3071877510966E-03
(PID.TID 0000.0001) %MON dynstat_uvel_del2            =   1.1444158074391E-05
(PID.TID 0000.0001) %MON dynstat_vvel_max             =   3.3125176166192E-03
(PID.TID 0000.0001) %MON dynstat_vvel_min             =  -5.2020338574389E-03
(PID.TID 0000.0001) %MON dynstat_vvel_mean            =   6.0580868156940E-12
(PID.TID 0000.0001) %MON dynstat_vvel_sd              =   7.6474346189763E-04
(PID.TID 0000.0001) %MON dynstat_vvel_del2            =   1.0385544247400E-05
(PID.TID 0000.0001) %MON dynstat_wvel_max             =   6.0118335654833E-04
(PID.TID 0000.0001) %MON dynstat_wvel_min             =  -8.0169579771697E-04
(PID.TID 0000.0001) %MON dynstat_wvel_mean            =   4.0669741756934E-12
(PID.TID 0000.0001) %MON dynstat_wvel_sd              =   4.2342687460927E-05
(PID.TID 0000.0001) %MON dynstat_wvel_del2            =   1.3566113751354E-06
(PID.TID 0000.0001) %MON dynstat_theta_max            =  -2.1005705312314E+00
(PID.TID 0000.0001) %MON dynstat_theta_min            =  -2.2269956453071E+00
(PID.TID 0000.0001) %MON dynstat_theta_mean           =  -2.1206264974672E+00
(PID.TID 0000.0001) %MON dynstat_theta_sd             =   2.2784469428409E-02
(PID.TID 0000.0001) %MON dynstat_theta_del2           =   3.8075547449915E-05
(PID.TID 0000.0001) %MON dynstat_salt_max             =   3.4499966185839E+01
(PID.TID 0000.0001) %MON dynstat_salt_min             =   3.4459822709862E+01
(PID.TID 0000.0001) %MON dynstat_salt_mean            =   3.4492303448268E+01
(PID.TID 0000.0001) %MON dynstat_salt_sd              =   9.0559885838370E-03
(PID.TID 0000.0001) %MON dynstat_salt_del2            =   2.3893923651849E-06
(PID.TID 0000.0001) %MON trAdv_CFL_u_max              =   3.7527709166264E-03
(PID.TID 0000.0001) %MON trAdv_CFL_v_max              =   4.9419321645670E-03
(PID.TID 0000.0001) %MON trAdv_CFL_w_max              =   5.8305148924871E-03
(PID.TID 0000.0001) %MON advcfl_uvel_max              =   3.7527709166264E-03
(PID.TID 0000.0001) %MON advcfl_vvel_max              =   4.9419321645670E-03
(PID.TID 0000.0001) %MON advcfl_wvel_max              =   5.8305148924871E-03
(PID.TID 0000.0001) %MON advcfl_W_hf_max              =   5.8305148924871E-03
(PID.TID 0000.0001) %MON pe_b_mean                    =   9.0895328123450E-05
(PID.TID 0000.0001) %MON ke_max                       =   3.8995060567689E-05
(PID.TID 0000.0001) %MON ke_mean                      =   2.8121307685955E-06
(PID.TID 0000.0001) %MON ke_vol                       =   1.8654725220387E+09
(PID.TID 0000.0001) %MON vort_r_min                   =  -1.2018440142317E-04
(PID.TID 0000.0001) %MON vort_r_max                   =   1.2849316519613E-04
(PID.TID 0000.0001) %MON vort_a_mean                  =   1.0000782634673E-04
(PID.TID 0000.0001) %MON vort_a_sd                    =   1.9231786147363E-05
(PID.TID 0000.0001) %MON vort_p_mean                  =   1.1991916022492E-04
(PID.TID 0000.0001) %MON vort_p_sd                    =   7.0125002976763E-05
(PID.TID 0000.0001) %MON surfExpan_theta_mean         =  -1.8971460962791E-13
(PID.TID 0000.0001) %MON surfExpan_salt_mean          =  -8.4954509104137E-14
(PID.TID 0000.0001) // =======================================================
(PID.TID 0000.0001) // End MONITOR dynamic field statistics
(PID.TID 0000.0001) // =======================================================
(PID.TID 0000.0001) // =======================================================
(PID.TID 0000.0001) // Begin MONITOR dynamic field statistics
(PID.TID 0000.0001) // =======================================================
(PID.TID 0000.0001) %MON time_tsnumber                =                181440
(PID.TID 0000.0001) %MON time_secondsf                =   1.4515200000000E+07
(PID.TID 0000.0001) %MON dynstat_eta_max              =   2.1182718123198E-01
(PID.TID 0000.0001) %MON dynstat_eta_min              =  -1.3465319810119E-01
(PID.TID 0000.0001) %MON dynstat_eta_mean             =   1.3288035032927E-16
(PID.TID 0000.0001) %MON dynstat_eta_sd               =   6.2833660630574E-02
(PID.TID 0000.0001) %MON dynstat_eta_del2             =   1.3680448147184E-03
(PID.TID 0000.0001) %MON dynstat_uvel_max             =   1.0722019409436E-02
(PID.TID 0000.0001) %MON dynstat_uvel_min             =  -9.3666387963867E-03
(PID.TID 0000.0001) %MON dynstat_uvel_mean            =   2.1690687564049E-13
(PID.TID 0000.0001) %MON dynstat_uvel_sd              =   2.3097022066457E-03
(PID.TID 0000.0001) %MON dynstat_uvel_del2            =   1.2646019334916E-05
(PID.TID 0000.0001) %MON dynstat_vvel_max             =   4.2159574757711E-03
(PID.TID 0000.0001) %MON dynstat_vvel_min             =  -5.3099728270436E-03
(PID.TID 0000.0001) %MON dynstat_vvel_mean            =   6.6837776179097E-12
(PID.TID 0000.0001) %MON dynstat_vvel_sd              =   7.7195091289281E-04
(PID.TID 0000.0001) %MON dynstat_vvel_del2            =   1.0488316075571E-05
(PID.TID 0000.0001) %MON dynstat_wvel_max             =   8.2619102526663E-04
(PID.TID 0000.0001) %MON dynstat_wvel_min             =  -9.5453331814800E-04
(PID.TID 0000.0001) %MON dynstat_wvel_mean            =   4.4759890545037E-12
(PID.TID 0000.0001) %MON dynstat_wvel_sd              =   4.7458264176125E-05
(PID.TID 0000.0001) %MON dynstat_wvel_del2            =   1.6237075315478E-06
(PID.TID 0000.0001) %MON dynstat_theta_max            =  -2.1005818416814E+00
(PID.TID 0000.0001) %MON dynstat_theta_min            =  -2.2285546954864E+00
(PID.TID 0000.0001) %MON dynstat_theta_mean           =  -2.1208294854997E+00
(PID.TID 0000.0001) %MON dynstat_theta_sd             =   2.2964040804550E-02
(PID.TID 0000.0001) %MON dynstat_theta_del2           =   3.9634389078460E-05
(PID.TID 0000.0001) %MON dynstat_salt_max             =   3.4499965562040E+01
(PID.TID 0000.0001) %MON dynstat_salt_min             =   3.4459024018394E+01
(PID.TID 0000.0001) %MON dynstat_salt_mean            =   3.4492234393283E+01
(PID.TID 0000.0001) %MON dynstat_salt_sd              =   9.1047911950827E-03
(PID.TID 0000.0001) %MON dynstat_salt_del2            =   2.3532754316759E-06
(PID.TID 0000.0001) %MON trAdv_CFL_u_max              =   4.4830865667052E-03
(PID.TID 0000.0001) %MON trAdv_CFL_v_max              =   5.0444741856914E-03
(PID.TID 0000.0001) %MON trAdv_CFL_w_max              =   6.9420604956218E-03
(PID.TID 0000.0001) %MON advcfl_uvel_max              =   3.7186237122540E-03
(PID.TID 0000.0001) %MON advcfl_vvel_max              =   5.0444741856914E-03
(PID.TID 0000.0001) %MON advcfl_wvel_max              =   6.9420604956218E-03
(PID.TID 0000.0001) %MON advcfl_W_hf_max              =   6.9420604956218E-03
(PID.TID 0000.0001) %MON pe_b_mean                    =   9.0883195519656E-05
(PID.TID 0000.0001) %MON ke_max                       =   4.0716080208958E-05
(PID.TID 0000.0001) %MON ke_mean                      =   2.8226453505205E-06
(PID.TID 0000.0001) %MON ke_vol                       =   1.8654725220387E+09
(PID.TID 0000.0001) %MON vort_r_min                   =  -1.2235098111362E-04
(PID.TID 0000.0001) %MON vort_r_max                   =   1.2732398048705E-04
(PID.TID 0000.0001) %MON vort_a_mean                  =   1.0000782634673E-04
(PID.TID 0000.0001) %MON vort_a_sd                    =   1.9580428541525E-05
(PID.TID 0000.0001) %MON vort_p_mean                  =   1.1991916022492E-04
(PID.TID 0000.0001) %MON vort_p_sd                    =   7.0084377297608E-05
(PID.TID 0000.0001) %MON surfExpan_theta_mean         =  -2.0453632722703E-13
(PID.TID 0000.0001) %MON surfExpan_salt_mean          =  -9.0796412467507E-14
(PID.TID 0000.0001) // =======================================================
(PID.TID 0000.0001) // End MONITOR dynamic field statistics
(PID.TID 0000.0001) // =======================================================
(PID.TID 0000.0001) // =======================================================
(PID.TID 0000.0001) // Begin MONITOR dynamic field statistics
(PID.TID 0000.0001) // =======================================================
(PID.TID 0000.0001) %MON time_tsnumber                =                184680
(PID.TID 0000.0001) %MON time_secondsf                =   1.4774400000000E+07
(PID.TID 0000.0001) %MON dynstat_eta_max              =   2.1181761773285E-01
(PID.TID 0000.0001) %MON dynstat_eta_min              =  -1.3464519828570E-01
(PID.TID 0000.0001) %MON dynstat_eta_mean             =   1.4453165453350E-16
(PID.TID 0000.0001) %MON dynstat_eta_sd               =   6.2829594582504E-02
(PID.TID 0000.0001) %MON dynstat_eta_del2             =   1.3679498345694E-03
(PID.TID 0000.0001) %MON dynstat_uvel_max             =   1.0710267679146E-02
(PID.TID 0000.0001) %MON dynstat_uvel_min             =  -1.0205745458900E-02
(PID.TID 0000.0001) %MON dynstat_uvel_mean            =  -1.6762172612916E-12
(PID.TID 0000.0001) %MON dynstat_uvel_sd              =   2.2960468615702E-03
(PID.TID 0000.0001) %MON dynstat_uvel_del2            =   1.1864941045793E-05
(PID.TID 0000.0001) %MON dynstat_vvel_max             =   4.7324038204453E-03
(PID.TID 0000.0001) %MON dynstat_vvel_min             =  -5.1752487191869E-03
(PID.TID 0000.0001) %MON dynstat_vvel_mean            =   7.2761281760026E-12
(PID.TID 0000.0001) %MON dynstat_vvel_sd              =   7.7520183706610E-04
(PID.TID 0000.0001) %MON dynstat_vvel_del2            =   1.0281264875698E-05
(PID.TID 0000.0001) %MON dynstat_wvel_max             =   8.7672970467560E-04
(PID.TID 0000.0001) %MON dynstat_wvel_min             =  -9.0360536675661E-04
(PID.TID 0000.0001) %MON dynstat_wvel_mean            =   4.5312872631858E-12
(PID.TID 0000.0001) %MON dynstat_wvel_sd              =   4.3100246500923E-05
(PID.TID 0000.0001) %MON dynstat_wvel_del2            =   1.3300067277535E-06
(PID.TID 0000.0001) %MON dynstat_theta_max            =  -2.1005876132808E+00
(PID.TID 0000.0001) %MON dynstat_theta_min            =  -2.2300031474246E+00
(PID.TID 0000.0001) %MON dynstat_theta_mean           =  -2.1210367790028E+00
(PID.TID 0000.0001) %MON dynstat_theta_sd             =   2.3120809724553E-02
(PID.TID 0000.0001) %MON dynstat_theta_del2           =   3.7804210031795E-05
(PID.TID 0000.0001) %MON dynstat_salt_max             =   3.4499965513885E+01
(PID.TID 0000.0001) %MON dynstat_salt_min             =   3.4459012906418E+01
(PID.TID 0000.0001) %MON dynstat_salt_mean            =   3.4492163564624E+01
(PID.TID 0000.0001) %MON dynstat_salt_sd              =   9.1556971550014E-03
(PID.TID 0000.0001) %MON dynstat_salt_del2            =   2.4036331672362E-06
(PID.TID 0000.0001) %MON trAdv_CFL_u_max              =   4.6959503466806E-03
(PID.TID 0000.0001) %MON trAdv_CFL_v_max              =   4.9164862832275E-03
(PID.TID 0000.0001) %MON trAdv_CFL_w_max              =   6.5755011816953E-03
(PID.TID 0000.0001) %MON advcfl_uvel_max              =   3.7145479629716E-03
(PID.TID 0000.0001) %MON advcfl_vvel_max              =   4.9164862832275E-03
(PID.TID 0000.0001) %MON advcfl_wvel_max              =   6.5716753945935E-03
(PID.TID 0000.0001) %MON advcfl_W_hf_max              =   6.5716753945935E-03
(PID.TID 0000.0001) %MON pe_b_mean                    =   9.0870705156473E-05
(PID.TID 0000.0001) %MON ke_max                       =   4.3050631734995E-05
(PID.TID 0000.0001) %MON ke_mean                      =   2.7947579874924E-06
(PID.TID 0000.0001) %MON ke_vol                       =   1.8654725220387E+09
(PID.TID 0000.0001) %MON vort_r_min                   =  -1.2119322732443E-04
(PID.TID 0000.0001) %MON vort_r_max                   =   1.2718442868986E-04
(PID.TID 0000.0001) %MON vort_a_mean                  =   1.0000782634673E-04
(PID.TID 0000.0001) %MON vort_a_sd                    =   1.9722415095143E-05
(PID.TID 0000.0001) %MON vort_p_mean                  =   1.1991916022492E-04
(PID.TID 0000.0001) %MON vort_p_sd                    =   6.9783162319620E-05
(PID.TID 0000.0001) %MON surfExpan_theta_mean         =  -2.3254291353793E-13
(PID.TID 0000.0001) %MON surfExpan_salt_mean          =  -9.6272776289983E-14
(PID.TID 0000.0001) // =======================================================
(PID.TID 0000.0001) // End MONITOR dynamic field statistics
(PID.TID 0000.0001) // =======================================================
(PID.TID 0000.0001) // =======================================================
(PID.TID 0000.0001) // Begin MONITOR dynamic field statistics
(PID.TID 0000.0001) // =======================================================
(PID.TID 0000.0001) %MON time_tsnumber                =                187920
(PID.TID 0000.0001) %MON time_secondsf                =   1.5033600000000E+07
(PID.TID 0000.0001) %MON dynstat_eta_max              =   2.1180822093339E-01
(PID.TID 0000.0001) %MON dynstat_eta_min              =  -1.3463890386698E-01
(PID.TID 0000.0001) %MON dynstat_eta_mean             =   1.3981565045084E-16
(PID.TID 0000.0001) %MON dynstat_eta_sd               =   6.2825351445417E-02
(PID.TID 0000.0001) %MON dynstat_eta_del2             =   1.3678647278617E-03
(PID.TID 0000.0001) %MON dynstat_uvel_max             =   9.0210527892427E-03
(PID.TID 0000.0001) %MON dynstat_uvel_min             =  -9.3564154433189E-03
(PID.TID 0000.0001) %MON dynstat_uvel_mean            =   8.5804104428915E-12
(PID.TID 0000.0001) %MON dynstat_uvel_sd              =   2.2659384734220E-03
(PID.TID 0000.0001) %MON dynstat_uvel_del2            =   1.1962228880537E-05
(PID.TID 0000.0001) %MON dynstat_vvel_max             =   4.2687330333275E-03
(PID.TID 0000.0001) %MON dynstat_vvel_min             =  -5.5291983912504E-03
(PID.TID 0000.0001) %MON dynstat_vvel_mean            =   4.8743140293444E-12
(PID.TID 0000.0001) %MON dynstat_vvel_sd              =   7.8225417973055E-04
(PID.TID 0000.0001) %MON dynstat_vvel_del2            =   1.0037933434806E-05
(PID.TID 0000.0001) %MON dynstat_wvel_max             =   6.9139950697303E-04
(PID.TID 0000.0001) %MON dynstat_wvel_min             =  -6.9649538877325E-04
(PID.TID 0000.0001) %MON dynstat_wvel_mean            =   4.5814925538355E-12
(PID.TID 0000.0001) %MON dynstat_wvel_sd              =   4.1246819488550E-05
(PID.TID 0000.0001) %MON dynstat_wvel_del2            =   1.2267740518087E-06
(PID.TID 0000.0001) %MON dynstat_theta_max            =  -2.1005996408208E+00
(PID.TID 0000.0001) %MON dynstat_theta_min            =  -2.2314053916329E+00
(PID.TID 0000.0001) %MON dynstat_theta_mean           =  -2.1212454125296E+00
(PID.TID 0000.0001) %MON dynstat_theta_sd             =   2.3284473041835E-02
(PID.TID 0000.0001) %MON dynstat_theta_del2           =   3.5974923007244E-05
(PID.TID 0000.0001) %MON dynstat_salt_max             =   3.4499965018174E+01
(PID.TID 0000.0001) %MON dynstat_salt_min             =   3.4458979111692E+01
(PID.TID 0000.0001) %MON dynstat_salt_mean            =   3.4492092183821E+01
(PID.TID 0000.0001) %MON dynstat_salt_sd              =   9.2076009212845E-03
(PID.TID 0000.0001) %MON dynstat_salt_del2            =   2.3141378672897E-06
(PID.TID 0000.0001) %MON trAdv_CFL_u_max              =   4.2876889898193E-03
(PID.TID 0000.0001) %MON trAdv_CFL_v_max              =   5.2527384716878E-03
(PID.TID 0000.0001) %MON trAdv_CFL_w_max              =   5.0654210092600E-03
(PID.TID 0000.0001) %MON advcfl_uvel_max              =   3.2450032965438E-03
(PID.TID 0000.0001) %MON advcfl_vvel_max              =   5.2527384716878E-03
(PID.TID 0000.0001) %MON advcfl_wvel_max              =   5.0654210092600E-03
(PID.TID 0000.0001) %MON advcfl_W_hf_max              =   6.1657635007063E-03
(PID.TID 0000.0001) %MON pe_b_mean                    =   9.0857762459647E-05
(PID.TID 0000.0001) %MON ke_max                       =   4.0076450434755E-05
(PID.TID 0000.0001) %MON ke_mean                      =   2.7338536463244E-06
(PID.TID 0000.0001) %MON ke_vol                       =   1.8654725220387E+09
(PID.TID 0000.0001) %MON vort_r_min                   =  -1.1171842302655E-04
(PID.TID 0000.0001) %MON vort_r_max                   =   1.0465136528808E-04
(PID.TID 0000.0001) %MON vort_a_mean                  =   1.0000782634673E-04
(PID.TID 0000.0001) %MON vort_a_sd                    =   1.9789734515905E-05
(PID.TID 0000.0001) %MON vort_p_mean                  =   1.1991916022492E-04
(PID.TID 0000.0001) %MON vort_p_sd                    =   6.8926048339773E-05
(PID.TID 0000.0001) %MON surfExpan_theta_mean         =  -2.2130877446718E-13
(PID.TID 0000.0001) %MON surfExpan_salt_mean          =  -9.2353751394649E-14
(PID.TID 0000.0001) // =======================================================
(PID.TID 0000.0001) // End MONITOR dynamic field statistics
(PID.TID 0000.0001) // =======================================================
(PID.TID 0000.0001) // =======================================================
(PID.TID 0000.0001) // Begin MONITOR dynamic field statistics
(PID.TID 0000.0001) // =======================================================
(PID.TID 0000.0001) %MON time_tsnumber                =                191160
(PID.TID 0000.0001) %MON time_secondsf                =   1.5292800000000E+07
(PID.TID 0000.0001) %MON dynstat_eta_max              =   2.1179932288833E-01
(PID.TID 0000.0001) %MON dynstat_eta_min              =  -1.3462993771839E-01
(PID.TID 0000.0001) %MON dynstat_eta_mean             =   1.3870600243138E-16
(PID.TID 0000.0001) %MON dynstat_eta_sd               =   6.2821070198878E-02
(PID.TID 0000.0001) %MON dynstat_eta_del2             =   1.3677835147104E-03
(PID.TID 0000.0001) %MON dynstat_uvel_max             =   1.0582980497196E-02
(PID.TID 0000.0001) %MON dynstat_uvel_min             =  -1.0681572191479E-02
(PID.TID 0000.0001) %MON dynstat_uvel_mean            =   3.1456704787091E-11
(PID.TID 0000.0001) %MON dynstat_uvel_sd              =   2.2229005620233E-03
(PID.TID 0000.0001) %MON dynstat_uvel_del2            =   1.1478307018387E-05
(PID.TID 0000.0001) %MON dynstat_vvel_max             =   4.6072517948753E-03
(PID.TID 0000.0001) %MON dynstat_vvel_min             =  -5.5765458150826E-03
(PID.TID 0000.0001) %MON dynstat_vvel_mean            =   5.2974813006664E-12
(PID.TID 0000.0001) %MON dynstat_vvel_sd              =   8.0143581073948E-04
(PID.TID 0000.0001) %MON dynstat_vvel_del2            =   1.0289604745004E-05
(PID.TID 0000.0001) %MON dynstat_wvel_max             =   7.9818114456815E-04
(PID.TID 0000.0001) %MON dynstat_wvel_min             =  -7.9469416913124E-04
(PID.TID 0000.0001) %MON dynstat_wvel_mean            =   4.5503983449825E-12
(PID.TID 0000.0001) %MON dynstat_wvel_sd              =   4.1572003474350E-05
(PID.TID 0000.0001) %MON dynstat_wvel_del2            =   1.2379473658531E-06
(PID.TID 0000.0001) %MON dynstat_theta_max            =  -2.1006137382967E+00
(PID.TID 0000.0001) %MON dynstat_theta_min            =  -2.2318054197491E+00
(PID.TID 0000.0001) %MON dynstat_theta_mean           =  -2.1214501065891E+00
(PID.TID 0000.0001) %MON dynstat_theta_sd             =   2.3461338573090E-02
(PID.TID 0000.0001) %MON dynstat_theta_del2           =   3.7067449466553E-05
(PID.TID 0000.0001) %MON dynstat_salt_max             =   3.4499964691936E+01
(PID.TID 0000.0001) %MON dynstat_salt_min             =   3.4458806532733E+01
(PID.TID 0000.0001) %MON dynstat_salt_mean            =   3.4492022425477E+01
(PID.TID 0000.0001) %MON dynstat_salt_sd              =   9.2588977553524E-03
(PID.TID 0000.0001) %MON dynstat_salt_del2            =   2.3308608565818E-06
(PID.TID 0000.0001) %MON trAdv_CFL_u_max              =   4.1650154447313E-03
(PID.TID 0000.0001) %MON trAdv_CFL_v_max              =   5.2977185243285E-03
(PID.TID 0000.0001) %MON trAdv_CFL_w_max              =   5.8049537786775E-03
(PID.TID 0000.0001) %MON advcfl_uvel_max              =   3.7045957593054E-03
(PID.TID 0000.0001) %MON advcfl_vvel_max              =   5.2977185243285E-03
(PID.TID 0000.0001) %MON advcfl_wvel_max              =   5.8049537786775E-03
(PID.TID 0000.0001) %MON advcfl_W_hf_max              =   5.8049537786775E-03
(PID.TID 0000.0001) %MON pe_b_mean                    =   9.0844776350470E-05
(PID.TID 0000.0001) %MON ke_max                       =   3.9933674853004E-05
(PID.TID 0000.0001) %MON ke_mean                      =   2.6548657177454E-06
(PID.TID 0000.0001) %MON ke_vol                       =   1.8654725220387E+09
(PID.TID 0000.0001) %MON vort_r_min                   =  -1.2684366977381E-04
(PID.TID 0000.0001) %MON vort_r_max                   =   1.2648070176027E-04
(PID.TID 0000.0001) %MON vort_a_mean                  =   1.0000782634673E-04
(PID.TID 0000.0001) %MON vort_a_sd                    =   1.9559265088816E-05
(PID.TID 0000.0001) %MON vort_p_mean                  =   1.1991916022492E-04
(PID.TID 0000.0001) %MON vort_p_sd                    =   6.8630906259973E-05
(PID.TID 0000.0001) %MON surfExpan_theta_mean         =  -2.0596091501909E-13
(PID.TID 0000.0001) %MON surfExpan_salt_mean          =  -8.8503968347559E-14
(PID.TID 0000.0001) // =======================================================
(PID.TID 0000.0001) // End MONITOR dynamic field statistics
(PID.TID 0000.0001) // =======================================================
(PID.TID 0000.0001) // =======================================================
(PID.TID 0000.0001) // Begin MONITOR dynamic field statistics
(PID.TID 0000.0001) // =======================================================
(PID.TID 0000.0001) %MON time_tsnumber                =                194400
(PID.TID 0000.0001) %MON time_secondsf                =   1.5552000000000E+07
(PID.TID 0000.0001) %MON dynstat_eta_max              =   2.1179030406369E-01
(PID.TID 0000.0001) %MON dynstat_eta_min              =  -1.3462143182617E-01
(PID.TID 0000.0001) %MON dynstat_eta_mean             =   1.3787376641680E-16
(PID.TID 0000.0001) %MON dynstat_eta_sd               =   6.2816651591294E-02
(PID.TID 0000.0001) %MON dynstat_eta_del2             =   1.3676905816744E-03
(PID.TID 0000.0001) %MON dynstat_uvel_max             =   1.2063162313248E-02
(PID.TID 0000.0001) %MON dynstat_uvel_min             =  -1.1322255271494E-02
(PID.TID 0000.0001) %MON dynstat_uvel_mean            =  -7.4761741587086E-12
(PID.TID 0000.0001) %MON dynstat_uvel_sd              =   2.2153101033380E-03
(PID.TID 0000.0001) %MON dynstat_uvel_del2            =   1.1703749955775E-05
(PID.TID 0000.0001) %MON dynstat_vvel_max             =   5.5049706239869E-03
(PID.TID 0000.0001) %MON dynstat_vvel_min             =  -5.7699057580479E-03
(PID.TID 0000.0001) %MON dynstat_vvel_mean            =   8.3267665243830E-12
(PID.TID 0000.0001) %MON dynstat_vvel_sd              =   8.0803521711659E-04
(PID.TID 0000.0001) %MON dynstat_vvel_del2            =   1.0814433823175E-05
(PID.TID 0000.0001) %MON dynstat_wvel_max             =   8.0103733092961E-04
(PID.TID 0000.0001) %MON dynstat_wvel_min             =  -8.1368746312525E-04
(PID.TID 0000.0001) %MON dynstat_wvel_mean            =   4.7807517456735E-12
(PID.TID 0000.0001) %MON dynstat_wvel_sd              =   4.0210618892209E-05
(PID.TID 0000.0001) %MON dynstat_wvel_del2            =   1.1452967603769E-06
(PID.TID 0000.0001) %MON dynstat_theta_max            =  -2.1006303503665E+00
(PID.TID 0000.0001) %MON dynstat_theta_min            =  -2.2331337644815E+00
(PID.TID 0000.0001) %MON dynstat_theta_mean           =  -2.1216533245620E+00
(PID.TID 0000.0001) %MON dynstat_theta_sd             =   2.3634233851731E-02
(PID.TID 0000.0001) %MON dynstat_theta_del2           =   3.5236195659027E-05
(PID.TID 0000.0001) %MON dynstat_salt_max             =   3.4499964412432E+01
(PID.TID 0000.0001) %MON dynstat_salt_min             =   3.4458695793059E+01
(PID.TID 0000.0001) %MON dynstat_salt_mean            =   3.4491953274829E+01
(PID.TID 0000.0001) %MON dynstat_salt_sd              =   9.3117179933392E-03
(PID.TID 0000.0001) %MON dynstat_salt_del2            =   2.2829326222439E-06
(PID.TID 0000.0001) %MON trAdv_CFL_u_max              =   4.2608629141138E-03
(PID.TID 0000.0001) %MON trAdv_CFL_v_max              =   5.4814104701456E-03
(PID.TID 0000.0001) %MON trAdv_CFL_w_max              =   5.9223424364945E-03
(PID.TID 0000.0001) %MON advcfl_uvel_max              =   4.1837605128131E-03
(PID.TID 0000.0001) %MON advcfl_vvel_max              =   5.4814104701456E-03
(PID.TID 0000.0001) %MON advcfl_wvel_max              =   5.9177270045472E-03
(PID.TID 0000.0001) %MON advcfl_W_hf_max              =   5.9177270045472E-03
(PID.TID 0000.0001) %MON pe_b_mean                    =   9.0831446668106E-05
(PID.TID 0000.0001) %MON ke_max                       =   5.1369430769301E-05
(PID.TID 0000.0001) %MON ke_mean                      =   2.6434725349527E-06
(PID.TID 0000.0001) %MON ke_vol                       =   1.8654725220387E+09
(PID.TID 0000.0001) %MON vort_r_min                   =  -1.4325005246982E-04
(PID.TID 0000.0001) %MON vort_r_max                   =   1.4339840773484E-04
(PID.TID 0000.0001) %MON vort_a_mean                  =   1.0000782634673E-04
(PID.TID 0000.0001) %MON vort_a_sd                    =   1.9824946867915E-05
(PID.TID 0000.0001) %MON vort_p_mean                  =   1.1991916022492E-04
(PID.TID 0000.0001) %MON vort_p_sd                    =   6.8840538088576E-05
(PID.TID 0000.0001) %MON surfExpan_theta_mean         =  -2.1786412420483E-13
(PID.TID 0000.0001) %MON surfExpan_salt_mean          =  -9.3928939283443E-14
(PID.TID 0000.0001) // =======================================================
(PID.TID 0000.0001) // End MONITOR dynamic field statistics
(PID.TID 0000.0001) // =======================================================
(PID.TID 0000.0001) %CHECKPOINT    196560 0000196560
(PID.TID 0000.0001) // =======================================================
(PID.TID 0000.0001) // Begin MONITOR dynamic field statistics
(PID.TID 0000.0001) // =======================================================
(PID.TID 0000.0001) %MON time_tsnumber                =                197640
(PID.TID 0000.0001) %MON time_secondsf                =   1.5811200000000E+07
(PID.TID 0000.0001) %MON dynstat_eta_max              =   2.1178118170713E-01
(PID.TID 0000.0001) %MON dynstat_eta_min              =  -1.3461221710707E-01
(PID.TID 0000.0001) %MON dynstat_eta_mean             =   1.3593188238276E-16
(PID.TID 0000.0001) %MON dynstat_eta_sd               =   6.2811904026974E-02
(PID.TID 0000.0001) %MON dynstat_eta_del2             =   1.3676026738799E-03
(PID.TID 0000.0001) %MON dynstat_uvel_max             =   8.2317886514527E-03
(PID.TID 0000.0001) %MON dynstat_uvel_min             =  -1.1513266717649E-02
(PID.TID 0000.0001) %MON dynstat_uvel_mean            =  -1.7471931362173E-11
(PID.TID 0000.0001) %MON dynstat_uvel_sd              =   2.2251635486300E-03
(PID.TID 0000.0001) %MON dynstat_uvel_del2            =   1.1127424077611E-05
(PID.TID 0000.0001) %MON dynstat_vvel_max             =   6.1509168504144E-03
(PID.TID 0000.0001) %MON dynstat_vvel_min             =  -6.1691740145190E-03
(PID.TID 0000.0001) %MON dynstat_vvel_mean            =   8.5956379323757E-12
(PID.TID 0000.0001) %MON dynstat_vvel_sd              =   7.7820829495351E-04
(PID.TID 0000.0001) %MON dynstat_vvel_del2            =   1.0983346762805E-05
(PID.TID 0000.0001) %MON dynstat_wvel_max             =   7.6948071054854E-04
(PID.TID 0000.0001) %MON dynstat_wvel_min             =  -7.6276583818473E-04
(PID.TID 0000.0001) %MON dynstat_wvel_mean            =   5.3275913776953E-12
(PID.TID 0000.0001) %MON dynstat_wvel_sd              =   3.9245208699491E-05
(PID.TID 0000.0001) %MON dynstat_wvel_del2            =   1.1309236397246E-06
(PID.TID 0000.0001) %MON dynstat_theta_max            =  -2.1006367909278E+00
(PID.TID 0000.0001) %MON dynstat_theta_min            =  -2.2341742400147E+00
(PID.TID 0000.0001) %MON dynstat_theta_mean           =  -2.1218596378120E+00
(PID.TID 0000.0001) %MON dynstat_theta_sd             =   2.3826662087468E-02
(PID.TID 0000.0001) %MON dynstat_theta_del2           =   3.7042980243272E-05
(PID.TID 0000.0001) %MON dynstat_salt_max             =   3.4499965297273E+01
(PID.TID 0000.0001) %MON dynstat_salt_min             =   3.4458758331002E+01
(PID.TID 0000.0001) %MON dynstat_salt_mean            =   3.4491882848744E+01
(PID.TID 0000.0001) %MON dynstat_salt_sd              =   9.3676198131755E-03
(PID.TID 0000.0001) %MON dynstat_salt_del2            =   2.3936465575776E-06
(PID.TID 0000.0001) %MON trAdv_CFL_u_max              =   3.9930450586647E-03
(PID.TID 0000.0001) %MON trAdv_CFL_v_max              =   5.8607153137931E-03
(PID.TID 0000.0001) %MON trAdv_CFL_w_max              =   5.5962233494439E-03
(PID.TID 0000.0001) %MON advcfl_uvel_max              =   3.9930450586647E-03
(PID.TID 0000.0001) %MON advcfl_vvel_max              =   5.8607153137931E-03
(PID.TID 0000.0001) %MON advcfl_wvel_max              =   5.5962233494439E-03
(PID.TID 0000.0001) %MON advcfl_W_hf_max              =   5.8607160340525E-03
(PID.TID 0000.0001) %MON pe_b_mean                    =   9.0817170312524E-05
(PID.TID 0000.0001) %MON ke_max                       =   5.2712578456300E-05
(PID.TID 0000.0001) %MON ke_mean                      =   2.6432841350860E-06
(PID.TID 0000.0001) %MON ke_vol                       =   1.8654725220387E+09
(PID.TID 0000.0001) %MON vort_r_min                   =  -1.3672004227208E-04
(PID.TID 0000.0001) %MON vort_r_max                   =   9.6921076497099E-05
(PID.TID 0000.0001) %MON vort_a_mean                  =   1.0000782634673E-04
(PID.TID 0000.0001) %MON vort_a_sd                    =   2.0050975876741E-05
(PID.TID 0000.0001) %MON vort_p_mean                  =   1.1991916022492E-04
(PID.TID 0000.0001) %MON vort_p_sd                    =   6.8834061136569E-05
(PID.TID 0000.0001) %MON surfExpan_theta_mean         =  -2.1704433766136E-13
(PID.TID 0000.0001) %MON surfExpan_salt_mean          =  -9.5854763281324E-14
(PID.TID 0000.0001) // =======================================================
(PID.TID 0000.0001) // End MONITOR dynamic field statistics
(PID.TID 0000.0001) // =======================================================
(PID.TID 0000.0001) // =======================================================
(PID.TID 0000.0001) // Begin MONITOR dynamic field statistics
(PID.TID 0000.0001) // =======================================================
(PID.TID 0000.0001) %MON time_tsnumber                =                200880
(PID.TID 0000.0001) %MON time_secondsf                =   1.6070400000000E+07
(PID.TID 0000.0001) %MON dynstat_eta_max              =   2.1177213058861E-01
(PID.TID 0000.0001) %MON dynstat_eta_min              =  -1.3460377077858E-01
(PID.TID 0000.0001) %MON dynstat_eta_mean             =   1.3204811431468E-16
(PID.TID 0000.0001) %MON dynstat_eta_sd               =   6.2806912644610E-02
(PID.TID 0000.0001) %MON dynstat_eta_del2             =   1.3675212166914E-03
(PID.TID 0000.0001) %MON dynstat_uvel_max             =   9.1532585181245E-03
(PID.TID 0000.0001) %MON dynstat_uvel_min             =  -1.1805984472715E-02
(PID.TID 0000.0001) %MON dynstat_uvel_mean            =   2.4112443458575E-11
(PID.TID 0000.0001) %MON dynstat_uvel_sd              =   2.2527483374968E-03
(PID.TID 0000.0001) %MON dynstat_uvel_del2            =   1.2548925428590E-05
(PID.TID 0000.0001) %MON dynstat_vvel_max             =   5.3345892669327E-03
(PID.TID 0000.0001) %MON dynstat_vvel_min             =  -5.4740756952648E-03
(PID.TID 0000.0001) %MON dynstat_vvel_mean            =   6.4691474123591E-12
(PID.TID 0000.0001) %MON dynstat_vvel_sd              =   7.3310053012960E-04
(PID.TID 0000.0001) %MON dynstat_vvel_del2            =   1.0965821413497E-05
(PID.TID 0000.0001) %MON dynstat_wvel_max             =   7.6746568927273E-04
(PID.TID 0000.0001) %MON dynstat_wvel_min             =  -1.3034435825444E-03
(PID.TID 0000.0001) %MON dynstat_wvel_mean            =   5.1952434810233E-12
(PID.TID 0000.0001) %MON dynstat_wvel_sd              =   4.7104926730110E-05
(PID.TID 0000.0001) %MON dynstat_wvel_del2            =   1.5136244955011E-06
(PID.TID 0000.0001) %MON dynstat_theta_max            =  -2.1006429312825E+00
(PID.TID 0000.0001) %MON dynstat_theta_min            =  -2.2351953496705E+00
(PID.TID 0000.0001) %MON dynstat_theta_mean           =  -2.1220638736976E+00
(PID.TID 0000.0001) %MON dynstat_theta_sd             =   2.4007521208575E-02
(PID.TID 0000.0001) %MON dynstat_theta_del2           =   4.2003477318430E-05
(PID.TID 0000.0001) %MON dynstat_salt_max             =   3.4499964290815E+01
(PID.TID 0000.0001) %MON dynstat_salt_min             =   3.4458834309589E+01
(PID.TID 0000.0001) %MON dynstat_salt_mean            =   3.4491813278077E+01
(PID.TID 0000.0001) %MON dynstat_salt_sd              =   9.4241690538636E-03
(PID.TID 0000.0001) %MON dynstat_salt_del2            =   2.5994050746129E-06
(PID.TID 0000.0001) %MON trAdv_CFL_u_max              =   4.0945657837650E-03
(PID.TID 0000.0001) %MON trAdv_CFL_v_max              =   5.2003719105015E-03
(PID.TID 0000.0001) %MON trAdv_CFL_w_max              =   9.4795896912318E-03
(PID.TID 0000.0001) %MON advcfl_uvel_max              =   4.0945657837650E-03
(PID.TID 0000.0001) %MON advcfl_vvel_max              =   5.2003719105015E-03
(PID.TID 0000.0001) %MON advcfl_wvel_max              =   9.4795896912318E-03
(PID.TID 0000.0001) %MON advcfl_W_hf_max              =   9.4795896912318E-03
(PID.TID 0000.0001) %MON pe_b_mean                    =   9.0802274580933E-05
(PID.TID 0000.0001) %MON ke_max                       =   6.0824152548003E-05
(PID.TID 0000.0001) %MON ke_mean                      =   2.6719917325215E-06
(PID.TID 0000.0001) %MON ke_vol                       =   1.8654725220387E+09
(PID.TID 0000.0001) %MON vort_r_min                   =  -1.4019606561349E-04
(PID.TID 0000.0001) %MON vort_r_max                   =   1.0547477240581E-04
(PID.TID 0000.0001) %MON vort_a_mean                  =   1.0000782634673E-04
(PID.TID 0000.0001) %MON vort_a_sd                    =   2.0535649065643E-05
(PID.TID 0000.0001) %MON vort_p_mean                  =   1.1991916022492E-04
(PID.TID 0000.0001) %MON vort_p_sd                    =   7.0106994043877E-05
(PID.TID 0000.0001) %MON surfExpan_theta_mean         =  -2.0841814878351E-13
(PID.TID 0000.0001) %MON surfExpan_salt_mean          =  -9.3601180231010E-14
(PID.TID 0000.0001) // =======================================================
(PID.TID 0000.0001) // End MONITOR dynamic field statistics
(PID.TID 0000.0001) // =======================================================
(PID.TID 0000.0001) // =======================================================
(PID.TID 0000.0001) // Begin MONITOR dynamic field statistics
(PID.TID 0000.0001) // =======================================================
(PID.TID 0000.0001) %MON time_tsnumber                =                204120
(PID.TID 0000.0001) %MON time_secondsf                =   1.6329600000000E+07
(PID.TID 0000.0001) %MON dynstat_eta_max              =   2.1176343035502E-01
(PID.TID 0000.0001) %MON dynstat_eta_min              =  -1.3458990590786E-01
(PID.TID 0000.0001) %MON dynstat_eta_mean             =   1.4064788646542E-16
(PID.TID 0000.0001) %MON dynstat_eta_sd               =   6.2801918926980E-02
(PID.TID 0000.0001) %MON dynstat_eta_del2             =   1.3674406806627E-03
(PID.TID 0000.0001) %MON dynstat_uvel_max             =   8.6179650172616E-03
(PID.TID 0000.0001) %MON dynstat_uvel_min             =  -1.2266051477550E-02
(PID.TID 0000.0001) %MON dynstat_uvel_mean            =   2.0865131072937E-11
(PID.TID 0000.0001) %MON dynstat_uvel_sd              =   2.2775530580986E-03
(PID.TID 0000.0001) %MON dynstat_uvel_del2            =   1.3380337154110E-05
(PID.TID 0000.0001) %MON dynstat_vvel_max             =   5.1946438177611E-03
(PID.TID 0000.0001) %MON dynstat_vvel_min             =  -6.5720543731908E-03
(PID.TID 0000.0001) %MON dynstat_vvel_mean            =   1.0742862572731E-11
(PID.TID 0000.0001) %MON dynstat_vvel_sd              =   7.0222098972139E-04
(PID.TID 0000.0001) %MON dynstat_vvel_del2            =   1.0784580463976E-05
(PID.TID 0000.0001) %MON dynstat_wvel_max             =   7.7681938662706E-04
(PID.TID 0000.0001) %MON dynstat_wvel_min             =  -8.6936841429576E-04
(PID.TID 0000.0001) %MON dynstat_wvel_mean            =   5.1321056029088E-12
(PID.TID 0000.0001) %MON dynstat_wvel_sd              =   4.9353950718919E-05
(PID.TID 0000.0001) %MON dynstat_wvel_del2            =   1.5750371171617E-06
(PID.TID 0000.0001) %MON dynstat_theta_max            =  -2.1007186108164E+00
(PID.TID 0000.0001) %MON dynstat_theta_min            =  -2.2365082024855E+00
(PID.TID 0000.0001) %MON dynstat_theta_mean           =  -2.1222671340927E+00
(PID.TID 0000.0001) %MON dynstat_theta_sd             =   2.4173805517164E-02
(PID.TID 0000.0001) %MON dynstat_theta_del2           =   4.1745499295643E-05
(PID.TID 0000.0001) %MON dynstat_salt_max             =   3.4499964652096E+01
(PID.TID 0000.0001) %MON dynstat_salt_min             =   3.4458401082654E+01
(PID.TID 0000.0001) %MON dynstat_salt_mean            =   3.4491744109190E+01
(PID.TID 0000.0001) %MON dynstat_salt_sd              =   9.4807944683281E-03
(PID.TID 0000.0001) %MON dynstat_salt_del2            =   2.7917883279380E-06
(PID.TID 0000.0001) %MON trAdv_CFL_u_max              =   4.6269893266943E-03
(PID.TID 0000.0001) %MON trAdv_CFL_v_max              =   6.2434516545312E-03
(PID.TID 0000.0001) %MON trAdv_CFL_w_max              =   6.3226793766964E-03
(PID.TID 0000.0001) %MON advcfl_uvel_max              =   4.2541267776485E-03
(PID.TID 0000.0001) %MON advcfl_vvel_max              =   6.2434516545312E-03
(PID.TID 0000.0001) %MON advcfl_wvel_max              =   6.3226793766964E-03
(PID.TID 0000.0001) %MON advcfl_W_hf_max              =   6.6768656973763E-03
(PID.TID 0000.0001) %MON pe_b_mean                    =   9.0787434870391E-05
(PID.TID 0000.0001) %MON ke_max                       =   6.0016622976318E-05
(PID.TID 0000.0001) %MON ke_mean                      =   2.7060202437633E-06
(PID.TID 0000.0001) %MON ke_vol                       =   1.8654725220387E+09
(PID.TID 0000.0001) %MON vort_r_min                   =  -1.4565936129591E-04
(PID.TID 0000.0001) %MON vort_r_max                   =   1.0767374304076E-04
(PID.TID 0000.0001) %MON vort_a_mean                  =   1.0000782634673E-04
(PID.TID 0000.0001) %MON vort_a_sd                    =   2.1054418772939E-05
(PID.TID 0000.0001) %MON vort_p_mean                  =   1.1991916022492E-04
(PID.TID 0000.0001) %MON vort_p_sd                    =   7.1504053282480E-05
(PID.TID 0000.0001) %MON surfExpan_theta_mean         =  -2.1107533380063E-13
(PID.TID 0000.0001) %MON surfExpan_salt_mean          =  -9.3333162591193E-14
(PID.TID 0000.0001) // =======================================================
(PID.TID 0000.0001) // End MONITOR dynamic field statistics
(PID.TID 0000.0001) // =======================================================
(PID.TID 0000.0001) // =======================================================
(PID.TID 0000.0001) // Begin MONITOR dynamic field statistics
(PID.TID 0000.0001) // =======================================================
(PID.TID 0000.0001) %MON time_tsnumber                =                207360
(PID.TID 0000.0001) %MON time_secondsf                =   1.6588800000000E+07
(PID.TID 0000.0001) %MON dynstat_eta_max              =   2.1175439813733E-01
(PID.TID 0000.0001) %MON dynstat_eta_min              =  -1.3457840733605E-01
(PID.TID 0000.0001) %MON dynstat_eta_mean             =   1.2455799018338E-16
(PID.TID 0000.0001) %MON dynstat_eta_sd               =   6.2797178251194E-02
(PID.TID 0000.0001) %MON dynstat_eta_del2             =   1.3673440168110E-03
(PID.TID 0000.0001) %MON dynstat_uvel_max             =   1.2397322212185E-02
(PID.TID 0000.0001) %MON dynstat_uvel_min             =  -1.1754398357789E-02
(PID.TID 0000.0001) %MON dynstat_uvel_mean            =  -1.4374474560065E-12
(PID.TID 0000.0001) %MON dynstat_uvel_sd              =   2.2169843627925E-03
(PID.TID 0000.0001) %MON dynstat_uvel_del2            =   1.2606145365098E-05
(PID.TID 0000.0001) %MON dynstat_vvel_max             =   4.9869042568251E-03
(PID.TID 0000.0001) %MON dynstat_vvel_min             =  -6.8276370142502E-03
(PID.TID 0000.0001) %MON dynstat_vvel_mean            =   8.3513070462701E-12
(PID.TID 0000.0001) %MON dynstat_vvel_sd              =   6.9021639808191E-04
(PID.TID 0000.0001) %MON dynstat_vvel_del2            =   1.0688421467837E-05
(PID.TID 0000.0001) %MON dynstat_wvel_max             =   8.4820428585421E-04
(PID.TID 0000.0001) %MON dynstat_wvel_min             =  -9.9129851667665E-04
(PID.TID 0000.0001) %MON dynstat_wvel_mean            =   4.8599408429511E-12
(PID.TID 0000.0001) %MON dynstat_wvel_sd              =   4.8280999992984E-05
(PID.TID 0000.0001) %MON dynstat_wvel_del2            =   1.4140395781121E-06
(PID.TID 0000.0001) %MON dynstat_theta_max            =  -2.1008201762704E+00
(PID.TID 0000.0001) %MON dynstat_theta_min            =  -2.2374167242971E+00
(PID.TID 0000.0001) %MON dynstat_theta_mean           =  -2.1224660048319E+00
(PID.TID 0000.0001) %MON dynstat_theta_sd             =   2.4342119855724E-02
(PID.TID 0000.0001) %MON dynstat_theta_del2           =   4.4304881120635E-05
(PID.TID 0000.0001) %MON dynstat_salt_max             =   3.4499963373243E+01
(PID.TID 0000.0001) %MON dynstat_salt_min             =   3.4457457792337E+01
(PID.TID 0000.0001) %MON dynstat_salt_mean            =   3.4491676748896E+01
(PID.TID 0000.0001) %MON dynstat_salt_sd              =   9.5344391458329E-03
(PID.TID 0000.0001) %MON dynstat_salt_del2            =   2.8525464003653E-06
(PID.TID 0000.0001) %MON trAdv_CFL_u_max              =   4.8757865564488E-03
(PID.TID 0000.0001) %MON trAdv_CFL_v_max              =   6.4862551635377E-03
(PID.TID 0000.0001) %MON trAdv_CFL_w_max              =   7.2205643721346E-03
(PID.TID 0000.0001) %MON advcfl_uvel_max              =   4.2996542522683E-03
(PID.TID 0000.0001) %MON advcfl_vvel_max              =   6.4862551635377E-03
(PID.TID 0000.0001) %MON advcfl_wvel_max              =   7.2094437576484E-03
(PID.TID 0000.0001) %MON advcfl_W_hf_max              =   7.2094437576484E-03
(PID.TID 0000.0001) %MON pe_b_mean                    =   9.0773416676156E-05
(PID.TID 0000.0001) %MON ke_max                       =   5.7020851286231E-05
(PID.TID 0000.0001) %MON ke_mean                      =   2.5681044036733E-06
(PID.TID 0000.0001) %MON ke_vol                       =   1.8654725220387E+09
(PID.TID 0000.0001) %MON vort_r_min                   =  -1.3958348049874E-04
(PID.TID 0000.0001) %MON vort_r_max                   =   1.4721820126969E-04
(PID.TID 0000.0001) %MON vort_a_mean                  =   1.0000782634673E-04
(PID.TID 0000.0001) %MON vort_a_sd                    =   2.0630125581374E-05
(PID.TID 0000.0001) %MON vort_p_mean                  =   1.1991916022492E-04
(PID.TID 0000.0001) %MON vort_p_sd                    =   7.1042000493321E-05
(PID.TID 0000.0001) %MON surfExpan_theta_mean         =  -2.3532365363773E-13
(PID.TID 0000.0001) %MON surfExpan_salt_mean          =  -9.5771051343543E-14
(PID.TID 0000.0001) // =======================================================
(PID.TID 0000.0001) // End MONITOR dynamic field statistics
(PID.TID 0000.0001) // =======================================================
(PID.TID 0000.0001) // =======================================================
(PID.TID 0000.0001) // Begin MONITOR dynamic field statistics
(PID.TID 0000.0001) // =======================================================
(PID.TID 0000.0001) %MON time_tsnumber                =                210600
(PID.TID 0000.0001) %MON time_secondsf                =   1.6848000000000E+07
(PID.TID 0000.0001) %MON dynstat_eta_max              =   2.1174587731249E-01
(PID.TID 0000.0001) %MON dynstat_eta_min              =  -1.3456862693547E-01
(PID.TID 0000.0001) %MON dynstat_eta_mean             =   1.1679045404723E-16
(PID.TID 0000.0001) %MON dynstat_eta_sd               =   6.2792652288182E-02
(PID.TID 0000.0001) %MON dynstat_eta_del2             =   1.3672619705657E-03
(PID.TID 0000.0001) %MON dynstat_uvel_max             =   1.1458419846628E-02
(PID.TID 0000.0001) %MON dynstat_uvel_min             =  -1.0241210020031E-02
(PID.TID 0000.0001) %MON dynstat_uvel_mean            =   3.3346619897944E-12
(PID.TID 0000.0001) %MON dynstat_uvel_sd              =   2.1193782456812E-03
(PID.TID 0000.0001) %MON dynstat_uvel_del2            =   1.2674047698879E-05
(PID.TID 0000.0001) %MON dynstat_vvel_max             =   4.1644616209382E-03
(PID.TID 0000.0001) %MON dynstat_vvel_min             =  -6.1035023215176E-03
(PID.TID 0000.0001) %MON dynstat_vvel_mean            =   5.5647142865283E-12
(PID.TID 0000.0001) %MON dynstat_vvel_sd              =   6.8497569931311E-04
(PID.TID 0000.0001) %MON dynstat_vvel_del2            =   1.0448828358054E-05
(PID.TID 0000.0001) %MON dynstat_wvel_max             =   6.5413178754433E-04
(PID.TID 0000.0001) %MON dynstat_wvel_min             =  -7.4617578442988E-04
(PID.TID 0000.0001) %MON dynstat_wvel_mean            =   4.5990634167997E-12
(PID.TID 0000.0001) %MON dynstat_wvel_sd              =   4.1724180483941E-05
(PID.TID 0000.0001) %MON dynstat_wvel_del2            =   1.2814869753167E-06
(PID.TID 0000.0001) %MON dynstat_theta_max            =  -2.1008246695776E+00
(PID.TID 0000.0001) %MON dynstat_theta_min            =  -2.2386611780334E+00
(PID.TID 0000.0001) %MON dynstat_theta_mean           =  -2.1226557591854E+00
(PID.TID 0000.0001) %MON dynstat_theta_sd             =   2.4466785840009E-02
(PID.TID 0000.0001) %MON dynstat_theta_del2           =   4.2820125408654E-05
(PID.TID 0000.0001) %MON dynstat_salt_max             =   3.4499962626889E+01
(PID.TID 0000.0001) %MON dynstat_salt_min             =   3.4459195943701E+01
(PID.TID 0000.0001) %MON dynstat_salt_mean            =   3.4491613144257E+01
(PID.TID 0000.0001) %MON dynstat_salt_sd              =   9.5836721740309E-03
(PID.TID 0000.0001) %MON dynstat_salt_del2            =   2.8887498856023E-06
(PID.TID 0000.0001) %MON trAdv_CFL_u_max              =   4.0649778574223E-03
(PID.TID 0000.0001) %MON trAdv_CFL_v_max              =   5.7983272054417E-03
(PID.TID 0000.0001) %MON trAdv_CFL_w_max              =   5.4317100081742E-03
(PID.TID 0000.0001) %MON advcfl_uvel_max              =   3.9740230006612E-03
(PID.TID 0000.0001) %MON advcfl_vvel_max              =   5.7983272054417E-03
(PID.TID 0000.0001) %MON advcfl_wvel_max              =   5.4267329776718E-03
(PID.TID 0000.0001) %MON advcfl_W_hf_max              =   5.8133508358373E-03
(PID.TID 0000.0001) %MON pe_b_mean                    =   9.0759934142308E-05
(PID.TID 0000.0001) %MON ke_max                       =   4.1122056350522E-05
(PID.TID 0000.0001) %MON ke_mean                      =   2.3620729983402E-06
(PID.TID 0000.0001) %MON ke_vol                       =   1.8654725220387E+09
(PID.TID 0000.0001) %MON vort_r_min                   =  -1.3606873567871E-04
(PID.TID 0000.0001) %MON vort_r_max                   =   1.3854952837149E-04
(PID.TID 0000.0001) %MON vort_a_mean                  =   1.0000782634673E-04
(PID.TID 0000.0001) %MON vort_a_sd                    =   1.9593891467118E-05
(PID.TID 0000.0001) %MON vort_p_mean                  =   1.1991916022492E-04
(PID.TID 0000.0001) %MON vort_p_sd                    =   7.0492014634142E-05
(PID.TID 0000.0001) %MON surfExpan_theta_mean         =  -1.9916592625445E-13
(PID.TID 0000.0001) %MON surfExpan_salt_mean          =  -8.6301295747369E-14
(PID.TID 0000.0001) // =======================================================
(PID.TID 0000.0001) // End MONITOR dynamic field statistics
(PID.TID 0000.0001) // =======================================================
(PID.TID 0000.0001) // =======================================================
(PID.TID 0000.0001) // Begin MONITOR dynamic field statistics
(PID.TID 0000.0001) // =======================================================
(PID.TID 0000.0001) %MON time_tsnumber                =                213840
(PID.TID 0000.0001) %MON time_secondsf                =   1.7107200000000E+07
(PID.TID 0000.0001) %MON dynstat_eta_max              =   2.1173791676771E-01
(PID.TID 0000.0001) %MON dynstat_eta_min              =  -1.3456055146702E-01
(PID.TID 0000.0001) %MON dynstat_eta_mean             =   1.2511281419311E-16
(PID.TID 0000.0001) %MON dynstat_eta_sd               =   6.2788726095366E-02
(PID.TID 0000.0001) %MON dynstat_eta_del2             =   1.3671904736088E-03
(PID.TID 0000.0001) %MON dynstat_uvel_max             =   1.0874981622931E-02
(PID.TID 0000.0001) %MON dynstat_uvel_min             =  -9.2869232196375E-03
(PID.TID 0000.0001) %MON dynstat_uvel_mean            =   3.8781284413499E-12
(PID.TID 0000.0001) %MON dynstat_uvel_sd              =   1.9951413092834E-03
(PID.TID 0000.0001) %MON dynstat_uvel_del2            =   1.2015724678531E-05
(PID.TID 0000.0001) %MON dynstat_vvel_max             =   3.3281315784541E-03
(PID.TID 0000.0001) %MON dynstat_vvel_min             =  -6.2209299042943E-03
(PID.TID 0000.0001) %MON dynstat_vvel_mean            =   5.0697298487537E-12
(PID.TID 0000.0001) %MON dynstat_vvel_sd              =   6.7013345194995E-04
(PID.TID 0000.0001) %MON dynstat_vvel_del2            =   1.0300398502716E-05
(PID.TID 0000.0001) %MON dynstat_wvel_max             =   4.0872089315105E-04
(PID.TID 0000.0001) %MON dynstat_wvel_min             =  -7.1339429338208E-04
(PID.TID 0000.0001) %MON dynstat_wvel_mean            =   3.7053337057660E-12
(PID.TID 0000.0001) %MON dynstat_wvel_sd              =   4.1000311870006E-05
(PID.TID 0000.0001) %MON dynstat_wvel_del2            =   1.2154300405923E-06
(PID.TID 0000.0001) %MON dynstat_theta_max            =  -2.1008351712565E+00
(PID.TID 0000.0001) %MON dynstat_theta_min            =  -2.2398470809525E+00
(PID.TID 0000.0001) %MON dynstat_theta_mean           =  -2.1228305236545E+00
(PID.TID 0000.0001) %MON dynstat_theta_sd             =   2.4590087802195E-02
(PID.TID 0000.0001) %MON dynstat_theta_del2           =   3.8650876887302E-05
(PID.TID 0000.0001) %MON dynstat_salt_max             =   3.4499962469020E+01
(PID.TID 0000.0001) %MON dynstat_salt_min             =   3.4459576334634E+01
(PID.TID 0000.0001) %MON dynstat_salt_mean            =   3.4491555714656E+01
(PID.TID 0000.0001) %MON dynstat_salt_sd              =   9.6257292450813E-03
(PID.TID 0000.0001) %MON dynstat_salt_del2            =   2.7080425142153E-06
(PID.TID 0000.0001) %MON trAdv_CFL_u_max              =   3.7716742517523E-03
(PID.TID 0000.0001) %MON trAdv_CFL_v_max              =   5.9098834090796E-03
(PID.TID 0000.0001) %MON trAdv_CFL_w_max              =   5.1883221336879E-03
(PID.TID 0000.0001) %MON advcfl_uvel_max              =   3.7716742517523E-03
(PID.TID 0000.0001) %MON advcfl_vvel_max              =   5.9098834090796E-03
(PID.TID 0000.0001) %MON advcfl_wvel_max              =   5.1883221336879E-03
(PID.TID 0000.0001) %MON advcfl_W_hf_max              =   5.9098837536182E-03
(PID.TID 0000.0001) %MON pe_b_mean                    =   9.0748296132028E-05
(PID.TID 0000.0001) %MON ke_max                       =   3.7366646965858E-05
(PID.TID 0000.0001) %MON ke_mean                      =   2.1081432397487E-06
(PID.TID 0000.0001) %MON ke_vol                       =   1.8654725220387E+09
(PID.TID 0000.0001) %MON vort_r_min                   =  -1.2965580263948E-04
(PID.TID 0000.0001) %MON vort_r_max                   =   1.2661928235323E-04
(PID.TID 0000.0001) %MON vort_a_mean                  =   1.0000782634673E-04
(PID.TID 0000.0001) %MON vort_a_sd                    =   1.8435318902008E-05
(PID.TID 0000.0001) %MON vort_p_mean                  =   1.1991916022492E-04
(PID.TID 0000.0001) %MON vort_p_sd                    =   7.0921160278983E-05
(PID.TID 0000.0001) %MON surfExpan_theta_mean         =  -1.6756118419570E-13
(PID.TID 0000.0001) %MON surfExpan_salt_mean          =  -7.0829452233671E-14
(PID.TID 0000.0001) // =======================================================
(PID.TID 0000.0001) // End MONITOR dynamic field statistics
(PID.TID 0000.0001) // =======================================================
(PID.TID 0000.0001) // =======================================================
(PID.TID 0000.0001) // Begin MONITOR dynamic field statistics
(PID.TID 0000.0001) // =======================================================
(PID.TID 0000.0001) %MON time_tsnumber                =                217080
(PID.TID 0000.0001) %MON time_secondsf                =   1.7366400000000E+07
(PID.TID 0000.0001) %MON dynstat_eta_max              =   2.1173089803032E-01
(PID.TID 0000.0001) %MON dynstat_eta_min              =  -1.3455063880490E-01
(PID.TID 0000.0001) %MON dynstat_eta_mean             =   1.2483540218825E-16
(PID.TID 0000.0001) %MON dynstat_eta_sd               =   6.2785393584440E-02
(PID.TID 0000.0001) %MON dynstat_eta_del2             =   1.3671251755017E-03
(PID.TID 0000.0001) %MON dynstat_uvel_max             =   1.1446281874095E-02
(PID.TID 0000.0001) %MON dynstat_uvel_min             =  -8.9632534910519E-03
(PID.TID 0000.0001) %MON dynstat_uvel_mean            =   1.2262900577826E-12
(PID.TID 0000.0001) %MON dynstat_uvel_sd              =   1.9083211987683E-03
(PID.TID 0000.0001) %MON dynstat_uvel_del2            =   1.0777925857365E-05
(PID.TID 0000.0001) %MON dynstat_vvel_max             =   3.3145142524139E-03
(PID.TID 0000.0001) %MON dynstat_vvel_min             =  -5.9464711423654E-03
(PID.TID 0000.0001) %MON dynstat_vvel_mean            =   4.7883032836323E-12
(PID.TID 0000.0001) %MON dynstat_vvel_sd              =   6.4008348086290E-04
(PID.TID 0000.0001) %MON dynstat_vvel_del2            =   9.9474965334025E-06
(PID.TID 0000.0001) %MON dynstat_wvel_max             =   4.5022011954155E-04
(PID.TID 0000.0001) %MON dynstat_wvel_min             =  -5.3911577334999E-04
(PID.TID 0000.0001) %MON dynstat_wvel_mean            =   3.3532216153829E-12
(PID.TID 0000.0001) %MON dynstat_wvel_sd              =   3.5945499172936E-05
(PID.TID 0000.0001) %MON dynstat_wvel_del2            =   1.0562077352336E-06
(PID.TID 0000.0001) %MON dynstat_theta_max            =  -2.1008448407161E+00
(PID.TID 0000.0001) %MON dynstat_theta_min            =  -2.2399396597364E+00
(PID.TID 0000.0001) %MON dynstat_theta_mean           =  -2.1229954928180E+00
(PID.TID 0000.0001) %MON dynstat_theta_sd             =   2.4713190266535E-02
(PID.TID 0000.0001) %MON dynstat_theta_del2           =   3.5259931096960E-05
(PID.TID 0000.0001) %MON dynstat_salt_max             =   3.4499962422013E+01
(PID.TID 0000.0001) %MON dynstat_salt_min             =   3.4459350067827E+01
(PID.TID 0000.0001) %MON dynstat_salt_mean            =   3.4491502320221E+01
(PID.TID 0000.0001) %MON dynstat_salt_sd              =   9.6631843105005E-03
(PID.TID 0000.0001) %MON dynstat_salt_del2            =   2.4739410870174E-06
(PID.TID 0000.0001) %MON trAdv_CFL_u_max              =   3.9698132943777E-03
(PID.TID 0000.0001) %MON trAdv_CFL_v_max              =   5.6491475852471E-03
(PID.TID 0000.0001) %MON trAdv_CFL_w_max              =   3.9208419879999E-03
(PID.TID 0000.0001) %MON advcfl_uvel_max              =   3.9698132943777E-03
(PID.TID 0000.0001) %MON advcfl_vvel_max              =   5.6491475852471E-03
(PID.TID 0000.0001) %MON advcfl_wvel_max              =   3.9208419879999E-03
(PID.TID 0000.0001) %MON advcfl_W_hf_max              =   5.6491478953019E-03
(PID.TID 0000.0001) %MON pe_b_mean                    =   9.0738368631325E-05
(PID.TID 0000.0001) %MON ke_max                       =   4.1766757160905E-05
(PID.TID 0000.0001) %MON ke_mean                      =   1.9281513549883E-06
(PID.TID 0000.0001) %MON ke_vol                       =   1.8654725220387E+09
(PID.TID 0000.0001) %MON vort_r_min                   =  -1.3592459725488E-04
(PID.TID 0000.0001) %MON vort_r_max                   =   1.3640330606056E-04
(PID.TID 0000.0001) %MON vort_a_mean                  =   1.0000782634673E-04
(PID.TID 0000.0001) %MON vort_a_sd                    =   1.7405641504653E-05
(PID.TID 0000.0001) %MON vort_p_mean                  =   1.1991916022492E-04
(PID.TID 0000.0001) %MON vort_p_sd                    =   7.0643971563847E-05
(PID.TID 0000.0001) %MON surfExpan_theta_mean         =  -1.5617723456465E-13
(PID.TID 0000.0001) %MON surfExpan_salt_mean          =  -6.4960274880651E-14
(PID.TID 0000.0001) // =======================================================
(PID.TID 0000.0001) // End MONITOR dynamic field statistics
(PID.TID 0000.0001) // =======================================================
(PID.TID 0000.0001) // =======================================================
(PID.TID 0000.0001) // Begin MONITOR dynamic field statistics
(PID.TID 0000.0001) // =======================================================
(PID.TID 0000.0001) %MON time_tsnumber                =                220320
(PID.TID 0000.0001) %MON time_secondsf                =   1.7625600000000E+07
(PID.TID 0000.0001) %MON dynstat_eta_max              =   2.1172384357574E-01
(PID.TID 0000.0001) %MON dynstat_eta_min              =  -1.3454400139496E-01
(PID.TID 0000.0001) %MON dynstat_eta_mean             =   1.2982881827578E-16
(PID.TID 0000.0001) %MON dynstat_eta_sd               =   6.2782267827146E-02
(PID.TID 0000.0001) %MON dynstat_eta_del2             =   1.3670549957232E-03
(PID.TID 0000.0001) %MON dynstat_uvel_max             =   9.0932600062140E-03
(PID.TID 0000.0001) %MON dynstat_uvel_min             =  -8.3833907681864E-03
(PID.TID 0000.0001) %MON dynstat_uvel_mean            =   2.0252882206966E-11
(PID.TID 0000.0001) %MON dynstat_uvel_sd              =   1.8819643397900E-03
(PID.TID 0000.0001) %MON dynstat_uvel_del2            =   1.0613474217433E-05
(PID.TID 0000.0001) %MON dynstat_vvel_max             =   3.0590327271683E-03
(PID.TID 0000.0001) %MON dynstat_vvel_min             =  -4.7564737114393E-03
(PID.TID 0000.0001) %MON dynstat_vvel_mean            =   4.6462293954394E-12
(PID.TID 0000.0001) %MON dynstat_vvel_sd              =   6.1906385695120E-04
(PID.TID 0000.0001) %MON dynstat_vvel_del2            =   9.8835869332066E-06
(PID.TID 0000.0001) %MON dynstat_wvel_max             =   4.9437373332132E-04
(PID.TID 0000.0001) %MON dynstat_wvel_min             =  -6.3790315143037E-04
(PID.TID 0000.0001) %MON dynstat_wvel_mean            =   3.2388627163970E-12
(PID.TID 0000.0001) %MON dynstat_wvel_sd              =   3.5574770485063E-05
(PID.TID 0000.0001) %MON dynstat_wvel_del2            =   1.0958468127863E-06
(PID.TID 0000.0001) %MON dynstat_theta_max            =  -2.1008473780683E+00
(PID.TID 0000.0001) %MON dynstat_theta_min            =  -2.2405676616469E+00
(PID.TID 0000.0001) %MON dynstat_theta_mean           =  -2.1231586642769E+00
(PID.TID 0000.0001) %MON dynstat_theta_sd             =   2.4838411772317E-02
(PID.TID 0000.0001) %MON dynstat_theta_del2           =   3.5583837830092E-05
(PID.TID 0000.0001) %MON dynstat_salt_max             =   3.4499962318297E+01
(PID.TID 0000.0001) %MON dynstat_salt_min             =   3.4458754787176E+01
(PID.TID 0000.0001) %MON dynstat_salt_mean            =   3.4491449666596E+01
(PID.TID 0000.0001) %MON dynstat_salt_sd              =   9.6994708824929E-03
(PID.TID 0000.0001) %MON dynstat_salt_del2            =   2.4279388878792E-06
(PID.TID 0000.0001) %MON trAdv_CFL_u_max              =   3.1537354102382E-03
(PID.TID 0000.0001) %MON trAdv_CFL_v_max              =   4.5186500258673E-03
(PID.TID 0000.0001) %MON trAdv_CFL_w_max              =   4.6392956467664E-03
(PID.TID 0000.0001) %MON advcfl_uvel_max              =   3.1537354102382E-03
(PID.TID 0000.0001) %MON advcfl_vvel_max              =   4.5186500258673E-03
(PID.TID 0000.0001) %MON advcfl_wvel_max              =   4.6392956467664E-03
(PID.TID 0000.0001) %MON advcfl_W_hf_max              =   5.3794247259630E-03
(PID.TID 0000.0001) %MON pe_b_mean                    =   9.0728905190240E-05
(PID.TID 0000.0001) %MON ke_max                       =   3.0028607017153E-05
(PID.TID 0000.0001) %MON ke_mean                      =   1.8684493508519E-06
(PID.TID 0000.0001) %MON ke_vol                       =   1.8654725220387E+09
(PID.TID 0000.0001) %MON vort_r_min                   =  -1.0934879579288E-04
(PID.TID 0000.0001) %MON vort_r_max                   =   1.0798246257379E-04
(PID.TID 0000.0001) %MON vort_a_mean                  =   1.0000782634673E-04
(PID.TID 0000.0001) %MON vort_a_sd                    =   1.6868656677870E-05
(PID.TID 0000.0001) %MON vort_p_mean                  =   1.1991916022492E-04
(PID.TID 0000.0001) %MON vort_p_sd                    =   7.0501774854763E-05
(PID.TID 0000.0001) %MON surfExpan_theta_mean         =  -1.6144251459292E-13
(PID.TID 0000.0001) %MON surfExpan_salt_mean          =  -6.8342628856662E-14
(PID.TID 0000.0001) // =======================================================
(PID.TID 0000.0001) // End MONITOR dynamic field statistics
(PID.TID 0000.0001) // =======================================================
(PID.TID 0000.0001) // =======================================================
(PID.TID 0000.0001) // Begin MONITOR dynamic field statistics
(PID.TID 0000.0001) // =======================================================
(PID.TID 0000.0001) %MON time_tsnumber                =                223560
(PID.TID 0000.0001) %MON time_secondsf                =   1.7884800000000E+07
(PID.TID 0000.0001) %MON dynstat_eta_max              =   2.1171723298257E-01
(PID.TID 0000.0001) %MON dynstat_eta_min              =  -1.3453999052767E-01
(PID.TID 0000.0001) %MON dynstat_eta_mean             =   1.3038364228550E-16
(PID.TID 0000.0001) %MON dynstat_eta_sd               =   6.2779215704858E-02
(PID.TID 0000.0001) %MON dynstat_eta_del2             =   1.3669885190724E-03
(PID.TID 0000.0001) %MON dynstat_uvel_max             =   9.8096082733846E-03
(PID.TID 0000.0001) %MON dynstat_uvel_min             =  -8.6836806846796E-03
(PID.TID 0000.0001) %MON dynstat_uvel_mean            =   3.5051960855666E-12
(PID.TID 0000.0001) %MON dynstat_uvel_sd              =   1.8959223288358E-03
(PID.TID 0000.0001) %MON dynstat_uvel_del2            =   1.0279020861013E-05
(PID.TID 0000.0001) %MON dynstat_vvel_max             =   4.2753426725877E-03
(PID.TID 0000.0001) %MON dynstat_vvel_min             =  -3.9324319645555E-03
(PID.TID 0000.0001) %MON dynstat_vvel_mean            =   4.4491476497121E-12
(PID.TID 0000.0001) %MON dynstat_vvel_sd              =   6.1617986480515E-04
(PID.TID 0000.0001) %MON dynstat_vvel_del2            =   1.0194756926399E-05
(PID.TID 0000.0001) %MON dynstat_wvel_max             =   5.8099692950777E-04
(PID.TID 0000.0001) %MON dynstat_wvel_min             =  -6.9863233962732E-04
(PID.TID 0000.0001) %MON dynstat_wvel_mean            =   3.3883438572722E-12
(PID.TID 0000.0001) %MON dynstat_wvel_sd              =   3.5109659673612E-05
(PID.TID 0000.0001) %MON dynstat_wvel_del2            =   1.0875253790618E-06
(PID.TID 0000.0001) %MON dynstat_theta_max            =  -2.1008516382828E+00
(PID.TID 0000.0001) %MON dynstat_theta_min            =  -2.2413920590586E+00
(PID.TID 0000.0001) %MON dynstat_theta_mean           =  -2.1233224081559E+00
(PID.TID 0000.0001) %MON dynstat_theta_sd             =   2.4964064061404E-02
(PID.TID 0000.0001) %MON dynstat_theta_del2           =   3.2797092541241E-05
(PID.TID 0000.0001) %MON dynstat_salt_max             =   3.4499962885234E+01
(PID.TID 0000.0001) %MON dynstat_salt_min             =   3.4457953993563E+01
(PID.TID 0000.0001) %MON dynstat_salt_mean            =   3.4491396777167E+01
(PID.TID 0000.0001) %MON dynstat_salt_sd              =   9.7363003128571E-03
(PID.TID 0000.0001) %MON dynstat_salt_del2            =   2.3400162157880E-06
(PID.TID 0000.0001) %MON trAdv_CFL_u_max              =   3.4620635611888E-03
(PID.TID 0000.0001) %MON trAdv_CFL_v_max              =   4.0615755389583E-03
(PID.TID 0000.0001) %MON trAdv_CFL_w_max              =   5.0809624700169E-03
(PID.TID 0000.0001) %MON advcfl_uvel_max              =   3.4021801808369E-03
(PID.TID 0000.0001) %MON advcfl_vvel_max              =   4.0615755389583E-03
(PID.TID 0000.0001) %MON advcfl_wvel_max              =   5.0809624700169E-03
(PID.TID 0000.0001) %MON advcfl_W_hf_max              =   5.3519234966816E-03
(PID.TID 0000.0001) %MON pe_b_mean                    =   9.0719574172345E-05
(PID.TID 0000.0001) %MON ke_max                       =   3.4477369602828E-05
(PID.TID 0000.0001) %MON ke_mean                      =   1.8921237439543E-06
(PID.TID 0000.0001) %MON ke_vol                       =   1.8654725220387E+09
(PID.TID 0000.0001) %MON vort_r_min                   =  -1.1296064733544E-04
(PID.TID 0000.0001) %MON vort_r_max                   =   1.1648909824644E-04
(PID.TID 0000.0001) %MON vort_a_mean                  =   1.0000782634673E-04
(PID.TID 0000.0001) %MON vort_a_sd                    =   1.6789187076894E-05
(PID.TID 0000.0001) %MON vort_p_mean                  =   1.1991916022492E-04
(PID.TID 0000.0001) %MON vort_p_sd                    =   7.0581957451069E-05
(PID.TID 0000.0001) %MON surfExpan_theta_mean         =  -1.6022634378389E-13
(PID.TID 0000.0001) %MON surfExpan_salt_mean          =  -6.6988553307492E-14
(PID.TID 0000.0001) // =======================================================
(PID.TID 0000.0001) // End MONITOR dynamic field statistics
(PID.TID 0000.0001) // =======================================================
(PID.TID 0000.0001) // =======================================================
(PID.TID 0000.0001) // Begin MONITOR dynamic field statistics
(PID.TID 0000.0001) // =======================================================
(PID.TID 0000.0001) %MON time_tsnumber                =                226800
(PID.TID 0000.0001) %MON time_secondsf                =   1.8144000000000E+07
(PID.TID 0000.0001) %MON dynstat_eta_max              =   2.1171037557043E-01
(PID.TID 0000.0001) %MON dynstat_eta_min              =  -1.3453409417381E-01
(PID.TID 0000.0001) %MON dynstat_eta_mean             =   1.3676411839735E-16
(PID.TID 0000.0001) %MON dynstat_eta_sd               =   6.2775812568562E-02
(PID.TID 0000.0001) %MON dynstat_eta_del2             =   1.3669190992012E-03
(PID.TID 0000.0001) %MON dynstat_uvel_max             =   1.0476412147633E-02
(PID.TID 0000.0001) %MON dynstat_uvel_min             =  -9.3301260807256E-03
(PID.TID 0000.0001) %MON dynstat_uvel_mean            =   9.4439733959290E-12
(PID.TID 0000.0001) %MON dynstat_uvel_sd              =   1.9343982799538E-03
(PID.TID 0000.0001) %MON dynstat_uvel_del2            =   1.1441158215071E-05
(PID.TID 0000.0001) %MON dynstat_vvel_max             =   5.2927884198083E-03
(PID.TID 0000.0001) %MON dynstat_vvel_min             =  -4.7762401569678E-03
(PID.TID 0000.0001) %MON dynstat_vvel_mean            =   5.8791637355304E-12
(PID.TID 0000.0001) %MON dynstat_vvel_sd              =   6.2853046029236E-04
(PID.TID 0000.0001) %MON dynstat_vvel_del2            =   1.0900516693758E-05
(PID.TID 0000.0001) %MON dynstat_wvel_max             =   6.3936046297919E-04
(PID.TID 0000.0001) %MON dynstat_wvel_min             =  -7.9131332073684E-04
(PID.TID 0000.0001) %MON dynstat_wvel_mean            =   3.7418686241960E-12
(PID.TID 0000.0001) %MON dynstat_wvel_sd              =   3.8407150240922E-05
(PID.TID 0000.0001) %MON dynstat_wvel_del2            =   1.2528599591799E-06
(PID.TID 0000.0001) %MON dynstat_theta_max            =  -2.1008582391303E+00
(PID.TID 0000.0001) %MON dynstat_theta_min            =  -2.2423882298669E+00
(PID.TID 0000.0001) %MON dynstat_theta_mean           =  -2.1234913641305E+00
(PID.TID 0000.0001) %MON dynstat_theta_sd             =   2.5105234073609E-02
(PID.TID 0000.0001) %MON dynstat_theta_del2           =   3.2981476590386E-05
(PID.TID 0000.0001) %MON dynstat_salt_max             =   3.4499961864630E+01
(PID.TID 0000.0001) %MON dynstat_salt_min             =   3.4457202959217E+01
(PID.TID 0000.0001) %MON dynstat_salt_mean            =   3.4491341740239E+01
(PID.TID 0000.0001) %MON dynstat_salt_sd              =   9.7765191980749E-03
(PID.TID 0000.0001) %MON dynstat_salt_del2            =   2.3141574379766E-06
(PID.TID 0000.0001) %MON trAdv_CFL_u_max              =   3.9415075367517E-03
(PID.TID 0000.0001) %MON trAdv_CFL_v_max              =   5.0281489988178E-03
(PID.TID 0000.0001) %MON trAdv_CFL_w_max              =   5.7550059689952E-03
(PID.TID 0000.0001) %MON advcfl_uvel_max              =   3.6334419052860E-03
(PID.TID 0000.0001) %MON advcfl_vvel_max              =   5.0281489988178E-03
(PID.TID 0000.0001) %MON advcfl_wvel_max              =   5.7550059689952E-03
(PID.TID 0000.0001) %MON advcfl_W_hf_max              =   5.7550059689952E-03
(PID.TID 0000.0001) %MON pe_b_mean                    =   9.0709238212412E-05
(PID.TID 0000.0001) %MON ke_max                       =   4.0709538124198E-05
(PID.TID 0000.0001) %MON ke_mean                      =   1.9696140648887E-06
(PID.TID 0000.0001) %MON ke_vol                       =   1.8654725220387E+09
(PID.TID 0000.0001) %MON vort_r_min                   =  -1.1079524720862E-04
(PID.TID 0000.0001) %MON vort_r_max                   =   1.2440739425314E-04
(PID.TID 0000.0001) %MON vort_a_mean                  =   1.0000782634673E-04
(PID.TID 0000.0001) %MON vort_a_sd                    =   1.7482325009309E-05
(PID.TID 0000.0001) %MON vort_p_mean                  =   1.1991916022492E-04
(PID.TID 0000.0001) %MON vort_p_sd                    =   7.0617206256502E-05
(PID.TID 0000.0001) %MON surfExpan_theta_mean         =  -1.7230864467025E-13
(PID.TID 0000.0001) %MON surfExpan_salt_mean          =  -7.3202680238600E-14
(PID.TID 0000.0001) // =======================================================
(PID.TID 0000.0001) // End MONITOR dynamic field statistics
(PID.TID 0000.0001) // =======================================================
(PID.TID 0000.0001) // =======================================================
(PID.TID 0000.0001) // Begin MONITOR dynamic field statistics
(PID.TID 0000.0001) // =======================================================
(PID.TID 0000.0001) %MON time_tsnumber                =                230040
(PID.TID 0000.0001) %MON time_secondsf                =   1.8403200000000E+07
(PID.TID 0000.0001) %MON dynstat_eta_max              =   2.1170287633615E-01
(PID.TID 0000.0001) %MON dynstat_eta_min              =  -1.3452891772535E-01
(PID.TID 0000.0001) %MON dynstat_eta_mean             =   1.3204811431468E-16
(PID.TID 0000.0001) %MON dynstat_eta_sd               =   6.2772085793134E-02
(PID.TID 0000.0001) %MON dynstat_eta_del2             =   1.3668424358781E-03
(PID.TID 0000.0001) %MON dynstat_uvel_max             =   9.9527916862931E-03
(PID.TID 0000.0001) %MON dynstat_uvel_min             =  -1.0419286296369E-02
(PID.TID 0000.0001) %MON dynstat_uvel_mean            =  -6.9142677147826E-12
(PID.TID 0000.0001) %MON dynstat_uvel_sd              =   1.9512845258005E-03
(PID.TID 0000.0001) %MON dynstat_uvel_del2            =   1.1506449929974E-05
(PID.TID 0000.0001) %MON dynstat_vvel_max             =   4.9012611363581E-03
(PID.TID 0000.0001) %MON dynstat_vvel_min             =  -5.8281833921254E-03
(PID.TID 0000.0001) %MON dynstat_vvel_mean            =   7.4387944784862E-12
(PID.TID 0000.0001) %MON dynstat_vvel_sd              =   6.2776331764318E-04
(PID.TID 0000.0001) %MON dynstat_vvel_del2            =   1.1152454902459E-05
(PID.TID 0000.0001) %MON dynstat_wvel_max             =   7.0228672299199E-04
(PID.TID 0000.0001) %MON dynstat_wvel_min             =  -7.4110036435669E-04
(PID.TID 0000.0001) %MON dynstat_wvel_mean            =   4.2400115821869E-12
(PID.TID 0000.0001) %MON dynstat_wvel_sd              =   4.3889536570170E-05
(PID.TID 0000.0001) %MON dynstat_wvel_del2            =   1.4438700077392E-06
(PID.TID 0000.0001) %MON dynstat_theta_max            =  -2.1008620633939E+00
(PID.TID 0000.0001) %MON dynstat_theta_min            =  -2.2435503374994E+00
(PID.TID 0000.0001) %MON dynstat_theta_mean           =  -2.1236653355375E+00
(PID.TID 0000.0001) %MON dynstat_theta_sd             =   2.5262913623850E-02
(PID.TID 0000.0001) %MON dynstat_theta_del2           =   3.1998254465364E-05
(PID.TID 0000.0001) %MON dynstat_salt_max             =   3.4499960850563E+01
(PID.TID 0000.0001) %MON dynstat_salt_min             =   3.4456709560950E+01
(PID.TID 0000.0001) %MON dynstat_salt_mean            =   3.4491284636760E+01
(PID.TID 0000.0001) %MON dynstat_salt_sd              =   9.8191682628343E-03
(PID.TID 0000.0001) %MON dynstat_salt_del2            =   2.2672503151899E-06
(PID.TID 0000.0001) %MON trAdv_CFL_u_max              =   3.6432860807409E-03
(PID.TID 0000.0001) %MON trAdv_CFL_v_max              =   5.5367742225191E-03
(PID.TID 0000.0001) %MON trAdv_CFL_w_max              =   5.3898208316850E-03
(PID.TID 0000.0001) %MON advcfl_uvel_max              =   3.6136294486040E-03
(PID.TID 0000.0001) %MON advcfl_vvel_max              =   5.5367742225191E-03
(PID.TID 0000.0001) %MON advcfl_wvel_max              =   5.3898208316850E-03
(PID.TID 0000.0001) %MON advcfl_W_hf_max              =   5.9690527695444E-03
(PID.TID 0000.0001) %MON pe_b_mean                    =   9.0698068382630E-05
(PID.TID 0000.0001) %MON ke_max                       =   4.6404964456389E-05
(PID.TID 0000.0001) %MON ke_mean                      =   2.0006233678088E-06
(PID.TID 0000.0001) %MON ke_vol                       =   1.8654725220387E+09
(PID.TID 0000.0001) %MON vort_r_min                   =  -1.2372902476938E-04
(PID.TID 0000.0001) %MON vort_r_max                   =   1.2372902476938E-04
(PID.TID 0000.0001) %MON vort_a_mean                  =   1.0000782634673E-04
(PID.TID 0000.0001) %MON vort_a_sd                    =   1.7977733619727E-05
(PID.TID 0000.0001) %MON vort_p_mean                  =   1.1991916022492E-04
(PID.TID 0000.0001) %MON vort_p_sd                    =   7.1232852842448E-05
(PID.TID 0000.0001) %MON surfExpan_theta_mean         =  -1.8349207976099E-13
(PID.TID 0000.0001) %MON surfExpan_salt_mean          =  -7.6672686024332E-14
(PID.TID 0000.0001) // =======================================================
(PID.TID 0000.0001) // End MONITOR dynamic field statistics
(PID.TID 0000.0001) // =======================================================
(PID.TID 0000.0001) %CHECKPOINT    230040 0000230040
(PID.TID 0000.0001) // =======================================================
(PID.TID 0000.0001) // Begin MONITOR dynamic field statistics
(PID.TID 0000.0001) // =======================================================
(PID.TID 0000.0001) %MON time_tsnumber                =                233280
(PID.TID 0000.0001) %MON time_secondsf                =   1.8662400000000E+07
(PID.TID 0000.0001) %MON dynstat_eta_max              =   2.1169506102191E-01
(PID.TID 0000.0001) %MON dynstat_eta_min              =  -1.3451800287245E-01
(PID.TID 0000.0001) %MON dynstat_eta_mean             =   1.2261610614934E-16
(PID.TID 0000.0001) %MON dynstat_eta_sd               =   6.2767969265209E-02
(PID.TID 0000.0001) %MON dynstat_eta_del2             =   1.3667631327014E-03
(PID.TID 0000.0001) %MON dynstat_uvel_max             =   9.1720908787649E-03
(PID.TID 0000.0001) %MON dynstat_uvel_min             =  -1.1540764503304E-02
(PID.TID 0000.0001) %MON dynstat_uvel_mean            =  -2.7825334136105E-11
(PID.TID 0000.0001) %MON dynstat_uvel_sd              =   1.9857533491001E-03
(PID.TID 0000.0001) %MON dynstat_uvel_del2            =   1.2099953277295E-05
(PID.TID 0000.0001) %MON dynstat_vvel_max             =   6.3427790869540E-03
(PID.TID 0000.0001) %MON dynstat_vvel_min             =  -5.7614313668068E-03
(PID.TID 0000.0001) %MON dynstat_vvel_mean            =   5.7258592235156E-12
(PID.TID 0000.0001) %MON dynstat_vvel_sd              =   6.1977660517722E-04
(PID.TID 0000.0001) %MON dynstat_vvel_del2            =   1.1030373661326E-05
(PID.TID 0000.0001) %MON dynstat_wvel_max             =   6.0476958760261E-04
(PID.TID 0000.0001) %MON dynstat_wvel_min             =  -6.5751054597017E-04
(PID.TID 0000.0001) %MON dynstat_wvel_mean            =   4.6118817380141E-12
(PID.TID 0000.0001) %MON dynstat_wvel_sd              =   4.2186337687628E-05
(PID.TID 0000.0001) %MON dynstat_wvel_del2            =   1.3456299765822E-06
(PID.TID 0000.0001) %MON dynstat_theta_max            =  -2.1008653341647E+00
(PID.TID 0000.0001) %MON dynstat_theta_min            =  -2.2446536866585E+00
(PID.TID 0000.0001) %MON dynstat_theta_mean           =  -2.1238399123023E+00
(PID.TID 0000.0001) %MON dynstat_theta_sd             =   2.5412107658263E-02
(PID.TID 0000.0001) %MON dynstat_theta_del2           =   3.3955836349091E-05
(PID.TID 0000.0001) %MON dynstat_salt_max             =   3.4499959940584E+01
(PID.TID 0000.0001) %MON dynstat_salt_min             =   3.4456306933547E+01
(PID.TID 0000.0001) %MON dynstat_salt_mean            =   3.4491227283616E+01
(PID.TID 0000.0001) %MON dynstat_salt_sd              =   9.8622605601728E-03
(PID.TID 0000.0001) %MON dynstat_salt_del2            =   2.3086814270522E-06
(PID.TID 0000.0001) %MON trAdv_CFL_u_max              =   4.0025818738734E-03
(PID.TID 0000.0001) %MON trAdv_CFL_v_max              =   6.0256401326063E-03
(PID.TID 0000.0001) %MON trAdv_CFL_w_max              =   4.7821521808521E-03
(PID.TID 0000.0001) %MON advcfl_uvel_max              =   4.0025818738734E-03
(PID.TID 0000.0001) %MON advcfl_vvel_max              =   6.0256401326063E-03
(PID.TID 0000.0001) %MON advcfl_wvel_max              =   4.7818948797831E-03
(PID.TID 0000.0001) %MON advcfl_W_hf_max              =   6.1043181548956E-03
(PID.TID 0000.0001) %MON pe_b_mean                    =   9.0685847978119E-05
(PID.TID 0000.0001) %MON ke_max                       =   5.9174119521370E-05
(PID.TID 0000.0001) %MON ke_mean                      =   2.0611936180653E-06
(PID.TID 0000.0001) %MON ke_vol                       =   1.8654725220387E+09
(PID.TID 0000.0001) %MON vort_r_min                   =  -1.3704657847674E-04
(PID.TID 0000.0001) %MON vort_r_max                   =   1.0891857918533E-04
(PID.TID 0000.0001) %MON vort_a_mean                  =   1.0000782634673E-04
(PID.TID 0000.0001) %MON vort_a_sd                    =   1.8526132119091E-05
(PID.TID 0000.0001) %MON vort_p_mean                  =   1.1991916022492E-04
(PID.TID 0000.0001) %MON vort_p_sd                    =   7.1390087308261E-05
(PID.TID 0000.0001) %MON surfExpan_theta_mean         =  -1.8065325418346E-13
(PID.TID 0000.0001) %MON surfExpan_salt_mean          =  -7.9263768871180E-14
(PID.TID 0000.0001) // =======================================================
(PID.TID 0000.0001) // End MONITOR dynamic field statistics
(PID.TID 0000.0001) // =======================================================
(PID.TID 0000.0001) // =======================================================
(PID.TID 0000.0001) // Begin MONITOR dynamic field statistics
(PID.TID 0000.0001) // =======================================================
(PID.TID 0000.0001) %MON time_tsnumber                =                236520
(PID.TID 0000.0001) %MON time_secondsf                =   1.8921600000000E+07
(PID.TID 0000.0001) %MON dynstat_eta_max              =   2.1168744282525E-01
(PID.TID 0000.0001) %MON dynstat_eta_min              =  -1.3451022662568E-01
(PID.TID 0000.0001) %MON dynstat_eta_mean             =   1.3260293832440E-16
(PID.TID 0000.0001) %MON dynstat_eta_sd               =   6.2763848217976E-02
(PID.TID 0000.0001) %MON dynstat_eta_del2             =   1.3666908111449E-03
(PID.TID 0000.0001) %MON dynstat_uvel_max             =   1.2912642869300E-02
(PID.TID 0000.0001) %MON dynstat_uvel_min             =  -1.1354763085393E-02
(PID.TID 0000.0001) %MON dynstat_uvel_mean            =  -1.1115565818146E-11
(PID.TID 0000.0001) %MON dynstat_uvel_sd              =   1.9751216847655E-03
(PID.TID 0000.0001) %MON dynstat_uvel_del2            =   1.2771995950066E-05
(PID.TID 0000.0001) %MON dynstat_vvel_max             =   4.7793526812565E-03
(PID.TID 0000.0001) %MON dynstat_vvel_min             =  -6.7351640356850E-03
(PID.TID 0000.0001) %MON dynstat_vvel_mean            =   6.3450284632285E-12
(PID.TID 0000.0001) %MON dynstat_vvel_sd              =   6.0763027400852E-04
(PID.TID 0000.0001) %MON dynstat_vvel_del2            =   1.0869940220785E-05
(PID.TID 0000.0001) %MON dynstat_wvel_max             =   7.0772127983400E-04
(PID.TID 0000.0001) %MON dynstat_wvel_min             =  -1.0194229862305E-03
(PID.TID 0000.0001) %MON dynstat_wvel_mean            =   4.2643017042600E-12
(PID.TID 0000.0001) %MON dynstat_wvel_sd              =   4.8368442906259E-05
(PID.TID 0000.0001) %MON dynstat_wvel_del2            =   1.5095130852808E-06
(PID.TID 0000.0001) %MON dynstat_theta_max            =  -2.1008656907795E+00
(PID.TID 0000.0001) %MON dynstat_theta_min            =  -2.2454180572613E+00
(PID.TID 0000.0001) %MON dynstat_theta_mean           =  -2.1240106837348E+00
(PID.TID 0000.0001) %MON dynstat_theta_sd             =   2.5554142632993E-02
(PID.TID 0000.0001) %MON dynstat_theta_del2           =   3.5647889027240E-05
(PID.TID 0000.0001) %MON dynstat_salt_max             =   3.4499959539575E+01
(PID.TID 0000.0001) %MON dynstat_salt_min             =   3.4456128936724E+01
(PID.TID 0000.0001) %MON dynstat_salt_mean            =   3.4491171497810E+01
(PID.TID 0000.0001) %MON dynstat_salt_sd              =   9.9032103037502E-03
(PID.TID 0000.0001) %MON dynstat_salt_del2            =   2.3812044973871E-06
(PID.TID 0000.0001) %MON trAdv_CFL_u_max              =   5.4465051185574E-03
(PID.TID 0000.0001) %MON trAdv_CFL_v_max              =   6.3984058339007E-03
(PID.TID 0000.0001) %MON trAdv_CFL_w_max              =   7.4139853544039E-03
(PID.TID 0000.0001) %MON advcfl_uvel_max              =   4.4783783845224E-03
(PID.TID 0000.0001) %MON advcfl_vvel_max              =   6.3984058339007E-03
(PID.TID 0000.0001) %MON advcfl_wvel_max              =   7.4139853544039E-03
(PID.TID 0000.0001) %MON advcfl_W_hf_max              =   7.4139853544039E-03
(PID.TID 0000.0001) %MON pe_b_mean                    =   9.0673716430653E-05
(PID.TID 0000.0001) %MON ke_max                       =   5.6471983337093E-05
(PID.TID 0000.0001) %MON ke_mean                      =   2.0343500005049E-06
(PID.TID 0000.0001) %MON ke_vol                       =   1.8654725220387E+09
(PID.TID 0000.0001) %MON vort_r_min                   =  -1.5333763407293E-04
(PID.TID 0000.0001) %MON vort_r_max                   =   1.5333763407293E-04
(PID.TID 0000.0001) %MON vort_a_mean                  =   1.0000782634673E-04
(PID.TID 0000.0001) %MON vort_a_sd                    =   1.8770290351138E-05
(PID.TID 0000.0001) %MON vort_p_mean                  =   1.1991916022492E-04
(PID.TID 0000.0001) %MON vort_p_sd                    =   7.2347997594376E-05
(PID.TID 0000.0001) %MON surfExpan_theta_mean         =  -1.6149382572633E-13
(PID.TID 0000.0001) %MON surfExpan_salt_mean          =  -7.3375260977695E-14
(PID.TID 0000.0001) // =======================================================
(PID.TID 0000.0001) // End MONITOR dynamic field statistics
(PID.TID 0000.0001) // =======================================================
(PID.TID 0000.0001) // =======================================================
(PID.TID 0000.0001) // Begin MONITOR dynamic field statistics
(PID.TID 0000.0001) // =======================================================
(PID.TID 0000.0001) %MON time_tsnumber                =                239760
(PID.TID 0000.0001) %MON time_secondsf                =   1.9180800000000E+07
(PID.TID 0000.0001) %MON dynstat_eta_max              =   2.1168021956191E-01
(PID.TID 0000.0001) %MON dynstat_eta_min              =  -1.3450092508399E-01
(PID.TID 0000.0001) %MON dynstat_eta_mean             =   1.4397683052378E-16
(PID.TID 0000.0001) %MON dynstat_eta_sd               =   6.2759977464278E-02
(PID.TID 0000.0001) %MON dynstat_eta_del2             =   1.3666192270146E-03
(PID.TID 0000.0001) %MON dynstat_uvel_max             =   9.2031449468300E-03
(PID.TID 0000.0001) %MON dynstat_uvel_min             =  -1.0631626472703E-02
(PID.TID 0000.0001) %MON dynstat_uvel_mean            =  -2.4514585813551E-11
(PID.TID 0000.0001) %MON dynstat_uvel_sd              =   1.9389036437490E-03
(PID.TID 0000.0001) %MON dynstat_uvel_del2            =   1.1286884818325E-05
(PID.TID 0000.0001) %MON dynstat_vvel_max             =   3.7079053466696E-03
(PID.TID 0000.0001) %MON dynstat_vvel_min             =  -6.7630588446511E-03
(PID.TID 0000.0001) %MON dynstat_vvel_mean            =   4.5881570580713E-12
(PID.TID 0000.0001) %MON dynstat_vvel_sd              =   5.8625336285308E-04
(PID.TID 0000.0001) %MON dynstat_vvel_del2            =   1.0288154089012E-05
(PID.TID 0000.0001) %MON dynstat_wvel_max             =   5.5534980565817E-04
(PID.TID 0000.0001) %MON dynstat_wvel_min             =  -8.2806472277492E-04
(PID.TID 0000.0001) %MON dynstat_wvel_mean            =   4.3343090946726E-12
(PID.TID 0000.0001) %MON dynstat_wvel_sd              =   4.3411674444440E-05
(PID.TID 0000.0001) %MON dynstat_wvel_del2            =   1.2503641786099E-06
(PID.TID 0000.0001) %MON dynstat_theta_max            =  -2.1008700284360E+00
(PID.TID 0000.0001) %MON dynstat_theta_min            =  -2.2459932933858E+00
(PID.TID 0000.0001) %MON dynstat_theta_mean           =  -2.1241777747270E+00
(PID.TID 0000.0001) %MON dynstat_theta_sd             =   2.5684354265235E-02
(PID.TID 0000.0001) %MON dynstat_theta_del2           =   3.6070929118129E-05
(PID.TID 0000.0001) %MON dynstat_salt_max             =   3.4499959280358E+01
(PID.TID 0000.0001) %MON dynstat_salt_min             =   3.4455818007706E+01
(PID.TID 0000.0001) %MON dynstat_salt_mean            =   3.4491117228246E+01
(PID.TID 0000.0001) %MON dynstat_salt_sd              =   9.9416267746415E-03
(PID.TID 0000.0001) %MON dynstat_salt_del2            =   2.4306967069420E-06
(PID.TID 0000.0001) %MON trAdv_CFL_u_max              =   3.6872735248390E-03
(PID.TID 0000.0001) %MON trAdv_CFL_v_max              =   6.4249059024185E-03
(PID.TID 0000.0001) %MON trAdv_CFL_w_max              =   6.0222888929085E-03
(PID.TID 0000.0001) %MON advcfl_uvel_max              =   3.6872735248390E-03
(PID.TID 0000.0001) %MON advcfl_vvel_max              =   6.4249059024185E-03
(PID.TID 0000.0001) %MON advcfl_wvel_max              =   6.0222888929085E-03
(PID.TID 0000.0001) %MON advcfl_W_hf_max              =   6.4249062369643E-03
(PID.TID 0000.0001) %MON pe_b_mean                    =   9.0662411358457E-05
(PID.TID 0000.0001) %MON ke_max                       =   5.1293045700006E-05
(PID.TID 0000.0001) %MON ke_mean                      =   1.9550135990028E-06
(PID.TID 0000.0001) %MON ke_vol                       =   1.8654725220387E+09
(PID.TID 0000.0001) %MON vort_r_min                   =  -1.4781466934047E-04
(PID.TID 0000.0001) %MON vort_r_max                   =   1.0928734624361E-04
(PID.TID 0000.0001) %MON vort_a_mean                  =   1.0000782634673E-04
(PID.TID 0000.0001) %MON vort_a_sd                    =   1.8378359773053E-05
(PID.TID 0000.0001) %MON vort_p_mean                  =   1.1991916022492E-04
(PID.TID 0000.0001) %MON vort_p_sd                    =   7.2380675534830E-05
(PID.TID 0000.0001) %MON surfExpan_theta_mean         =  -1.3748451324647E-13
(PID.TID 0000.0001) %MON surfExpan_salt_mean          =  -6.9487850258676E-14
(PID.TID 0000.0001) // =======================================================
(PID.TID 0000.0001) // End MONITOR dynamic field statistics
(PID.TID 0000.0001) // =======================================================
(PID.TID 0000.0001) // =======================================================
(PID.TID 0000.0001) // Begin MONITOR dynamic field statistics
(PID.TID 0000.0001) // =======================================================
(PID.TID 0000.0001) %MON time_tsnumber                =                243000
(PID.TID 0000.0001) %MON time_secondsf                =   1.9440000000000E+07
(PID.TID 0000.0001) %MON dynstat_eta_max              =   2.1167272260162E-01
(PID.TID 0000.0001) %MON dynstat_eta_min              =  -1.3448536182107E-01
(PID.TID 0000.0001) %MON dynstat_eta_mean             =   1.5895707878637E-16
(PID.TID 0000.0001) %MON dynstat_eta_sd               =   6.2756199851540E-02
(PID.TID 0000.0001) %MON dynstat_eta_del2             =   1.3665501125403E-03
(PID.TID 0000.0001) %MON dynstat_uvel_max             =   9.4799442981075E-03
(PID.TID 0000.0001) %MON dynstat_uvel_min             =  -1.0459429156414E-02
(PID.TID 0000.0001) %MON dynstat_uvel_mean            =  -5.6836310013781E-12
(PID.TID 0000.0001) %MON dynstat_uvel_sd              =   1.9089190901240E-03
(PID.TID 0000.0001) %MON dynstat_uvel_del2            =   1.2262062847105E-05
(PID.TID 0000.0001) %MON dynstat_vvel_max             =   3.6070146009858E-03
(PID.TID 0000.0001) %MON dynstat_vvel_min             =  -7.0442506066758E-03
(PID.TID 0000.0001) %MON dynstat_vvel_mean            =   4.6834363026837E-12
(PID.TID 0000.0001) %MON dynstat_vvel_sd              =   5.6977576335329E-04
(PID.TID 0000.0001) %MON dynstat_vvel_del2            =   1.0547079461594E-05
(PID.TID 0000.0001) %MON dynstat_wvel_max             =   6.5225199585896E-04
(PID.TID 0000.0001) %MON dynstat_wvel_min             =  -6.8971764799881E-04
(PID.TID 0000.0001) %MON dynstat_wvel_mean            =   3.8657852767539E-12
(PID.TID 0000.0001) %MON dynstat_wvel_sd              =   4.0184431553827E-05
(PID.TID 0000.0001) %MON dynstat_wvel_del2            =   1.2246104333935E-06
(PID.TID 0000.0001) %MON dynstat_theta_max            =  -2.1008748672250E+00
(PID.TID 0000.0001) %MON dynstat_theta_min            =  -2.2462479063958E+00
(PID.TID 0000.0001) %MON dynstat_theta_mean           =  -2.1243412097753E+00
(PID.TID 0000.0001) %MON dynstat_theta_sd             =   2.5810816204171E-02
(PID.TID 0000.0001) %MON dynstat_theta_del2           =   3.6361753968388E-05
(PID.TID 0000.0001) %MON dynstat_salt_max             =   3.4499958864478E+01
(PID.TID 0000.0001) %MON dynstat_salt_min             =   3.4455304912640E+01
(PID.TID 0000.0001) %MON dynstat_salt_mean            =   3.4491064464811E+01
(PID.TID 0000.0001) %MON dynstat_salt_sd              =   9.9784306911414E-03
(PID.TID 0000.0001) %MON dynstat_salt_del2            =   2.5654029730419E-06
(PID.TID 0000.0001) %MON trAdv_CFL_u_max              =   3.6275518437744E-03
(PID.TID 0000.0001) %MON trAdv_CFL_v_max              =   6.6920380763420E-03
(PID.TID 0000.0001) %MON trAdv_CFL_w_max              =   5.0161283490822E-03
(PID.TID 0000.0001) %MON advcfl_uvel_max              =   3.6275518437744E-03
(PID.TID 0000.0001) %MON advcfl_vvel_max              =   6.6920380763420E-03
(PID.TID 0000.0001) %MON advcfl_wvel_max              =   5.0161283490822E-03
(PID.TID 0000.0001) %MON advcfl_W_hf_max              =   6.6920385335744E-03
(PID.TID 0000.0001) %MON pe_b_mean                    =   9.0651355271476E-05
(PID.TID 0000.0001) %MON ke_max                       =   4.5770370160972E-05
(PID.TID 0000.0001) %MON ke_mean                      =   1.8912131321932E-06
(PID.TID 0000.0001) %MON ke_vol                       =   1.8654725220387E+09
(PID.TID 0000.0001) %MON vort_r_min                   =  -1.4669231016598E-04
(PID.TID 0000.0001) %MON vort_r_max                   =   1.1257433854003E-04
(PID.TID 0000.0001) %MON vort_a_mean                  =   1.0000782634673E-04
(PID.TID 0000.0001) %MON vort_a_sd                    =   1.7855824573015E-05
(PID.TID 0000.0001) %MON vort_p_mean                  =   1.1991916022492E-04
(PID.TID 0000.0001) %MON vort_p_sd                    =   7.1881274611816E-05
(PID.TID 0000.0001) %MON surfExpan_theta_mean         =  -1.4907243430589E-13
(PID.TID 0000.0001) %MON surfExpan_salt_mean          =  -6.7996114295439E-14
(PID.TID 0000.0001) // =======================================================
(PID.TID 0000.0001) // End MONITOR dynamic field statistics
(PID.TID 0000.0001) // =======================================================
(PID.TID 0000.0001) // =======================================================
(PID.TID 0000.0001) // Begin MONITOR dynamic field statistics
(PID.TID 0000.0001) // =======================================================
(PID.TID 0000.0001) %MON time_tsnumber                =                246240
(PID.TID 0000.0001) %MON time_secondsf                =   1.9699200000000E+07
(PID.TID 0000.0001) %MON dynstat_eta_max              =   2.1166605674154E-01
(PID.TID 0000.0001) %MON dynstat_eta_min              =  -1.3447813581748E-01
(PID.TID 0000.0001) %MON dynstat_eta_mean             =   1.6311825885931E-16
(PID.TID 0000.0001) %MON dynstat_eta_sd               =   6.2752838987012E-02
(PID.TID 0000.0001) %MON dynstat_eta_del2             =   1.3664743536429E-03
(PID.TID 0000.0001) %MON dynstat_uvel_max             =   1.1122288074317E-02
(PID.TID 0000.0001) %MON dynstat_uvel_min             =  -1.1817340243963E-02
(PID.TID 0000.0001) %MON dynstat_uvel_mean            =  -1.8650676115006E-15
(PID.TID 0000.0001) %MON dynstat_uvel_sd              =   1.8764376191598E-03
(PID.TID 0000.0001) %MON dynstat_uvel_del2            =   1.2174967161937E-05
(PID.TID 0000.0001) %MON dynstat_vvel_max             =   5.3221626399774E-03
(PID.TID 0000.0001) %MON dynstat_vvel_min             =  -5.6887561571156E-03
(PID.TID 0000.0001) %MON dynstat_vvel_mean            =   5.9284927433518E-12
(PID.TID 0000.0001) %MON dynstat_vvel_sd              =   5.6747925645047E-04
(PID.TID 0000.0001) %MON dynstat_vvel_del2            =   1.0993665345640E-05
(PID.TID 0000.0001) %MON dynstat_wvel_max             =   9.6893052712839E-04
(PID.TID 0000.0001) %MON dynstat_wvel_min             =  -9.7325744736054E-04
(PID.TID 0000.0001) %MON dynstat_wvel_mean            =   3.3997736762456E-12
(PID.TID 0000.0001) %MON dynstat_wvel_sd              =   4.1426294558486E-05
(PID.TID 0000.0001) %MON dynstat_wvel_del2            =   1.2489082764727E-06
(PID.TID 0000.0001) %MON dynstat_theta_max            =  -2.0986377462397E+00
(PID.TID 0000.0001) %MON dynstat_theta_min            =  -2.2464632259104E+00
(PID.TID 0000.0001) %MON dynstat_theta_mean           =  -2.1245036191693E+00
(PID.TID 0000.0001) %MON dynstat_theta_sd             =   2.5944190376312E-02
(PID.TID 0000.0001) %MON dynstat_theta_del2           =   3.7636225977036E-05
(PID.TID 0000.0001) %MON dynstat_salt_max             =   3.4499958921616E+01
(PID.TID 0000.0001) %MON dynstat_salt_min             =   3.4454131444673E+01
(PID.TID 0000.0001) %MON dynstat_salt_mean            =   3.4491012124040E+01
(PID.TID 0000.0001) %MON dynstat_salt_sd              =   1.0014626548111E-02
(PID.TID 0000.0001) %MON dynstat_salt_del2            =   2.6553910240760E-06
(PID.TID 0000.0001) %MON trAdv_CFL_u_max              =   5.1387060694339E-03
(PID.TID 0000.0001) %MON trAdv_CFL_v_max              =   5.4043183492598E-03
(PID.TID 0000.0001) %MON trAdv_CFL_w_max              =   7.0782359808039E-03
(PID.TID 0000.0001) %MON advcfl_uvel_max              =   4.0985042060550E-03
(PID.TID 0000.0001) %MON advcfl_vvel_max              =   5.4043183492598E-03
(PID.TID 0000.0001) %MON advcfl_wvel_max              =   7.0782359808039E-03
(PID.TID 0000.0001) %MON advcfl_W_hf_max              =   7.0782359808039E-03
(PID.TID 0000.0001) %MON pe_b_mean                    =   9.0641428192846E-05
(PID.TID 0000.0001) %MON ke_max                       =   4.8740898647496E-05
(PID.TID 0000.0001) %MON ke_mean                      =   1.8311302183088E-06
(PID.TID 0000.0001) %MON ke_vol                       =   1.8654725220387E+09
(PID.TID 0000.0001) %MON vort_r_min                   =  -1.4033091539706E-04
(PID.TID 0000.0001) %MON vort_r_max                   =   1.3207717088251E-04
(PID.TID 0000.0001) %MON vort_a_mean                  =   1.0000782634673E-04
(PID.TID 0000.0001) %MON vort_a_sd                    =   1.7444286522961E-05
(PID.TID 0000.0001) %MON vort_p_mean                  =   1.1991916022492E-04
(PID.TID 0000.0001) %MON vort_p_sd                    =   7.1398743936442E-05
(PID.TID 0000.0001) %MON surfExpan_theta_mean         =  -1.4262738511303E-13
(PID.TID 0000.0001) %MON surfExpan_salt_mean          =  -6.3974685996390E-14
(PID.TID 0000.0001) // =======================================================
(PID.TID 0000.0001) // End MONITOR dynamic field statistics
(PID.TID 0000.0001) // =======================================================
(PID.TID 0000.0001) // =======================================================
(PID.TID 0000.0001) // Begin MONITOR dynamic field statistics
(PID.TID 0000.0001) // =======================================================
(PID.TID 0000.0001) %MON time_tsnumber                =                249480
(PID.TID 0000.0001) %MON time_secondsf                =   1.9958400000000E+07
(PID.TID 0000.0001) %MON dynstat_eta_max              =   2.1165913126471E-01
(PID.TID 0000.0001) %MON dynstat_eta_min              =  -1.3447240583377E-01
(PID.TID 0000.0001) %MON dynstat_eta_mean             =   1.6949873497115E-16
(PID.TID 0000.0001) %MON dynstat_eta_sd               =   6.2749648221921E-02
(PID.TID 0000.0001) %MON dynstat_eta_del2             =   1.3664085685545E-03
(PID.TID 0000.0001) %MON dynstat_uvel_max             =   1.0087700468203E-02
(PID.TID 0000.0001) %MON dynstat_uvel_min             =  -1.1018732680118E-02
(PID.TID 0000.0001) %MON dynstat_uvel_mean            =  -1.7459055099905E-11
(PID.TID 0000.0001) %MON dynstat_uvel_sd              =   1.8334090060440E-03
(PID.TID 0000.0001) %MON dynstat_uvel_del2            =   1.2574385379419E-05
(PID.TID 0000.0001) %MON dynstat_vvel_max             =   4.7393818201366E-03
(PID.TID 0000.0001) %MON dynstat_vvel_min             =  -5.0355082044124E-03
(PID.TID 0000.0001) %MON dynstat_vvel_mean            =   5.6229561416356E-12
(PID.TID 0000.0001) %MON dynstat_vvel_sd              =   5.6635050729508E-04
(PID.TID 0000.0001) %MON dynstat_vvel_del2            =   1.1011591859030E-05
(PID.TID 0000.0001) %MON dynstat_wvel_max             =   8.3399738318705E-04
(PID.TID 0000.0001) %MON dynstat_wvel_min             =  -7.4950622106377E-04
(PID.TID 0000.0001) %MON dynstat_wvel_mean            =   3.3296560235853E-12
(PID.TID 0000.0001) %MON dynstat_wvel_sd              =   4.1705395798376E-05
(PID.TID 0000.0001) %MON dynstat_wvel_del2            =   1.3934407113529E-06
(PID.TID 0000.0001) %MON dynstat_theta_max            =  -2.1008807982585E+00
(PID.TID 0000.0001) %MON dynstat_theta_min            =  -2.2476842706831E+00
(PID.TID 0000.0001) %MON dynstat_theta_mean           =  -2.1246658626705E+00
(PID.TID 0000.0001) %MON dynstat_theta_sd             =   2.6061481036629E-02
(PID.TID 0000.0001) %MON dynstat_theta_del2           =   3.6213921990008E-05
(PID.TID 0000.0001) %MON dynstat_salt_max             =   3.4499958735064E+01
(PID.TID 0000.0001) %MON dynstat_salt_min             =   3.4454836695745E+01
(PID.TID 0000.0001) %MON dynstat_salt_mean            =   3.4490959851786E+01
(PID.TID 0000.0001) %MON dynstat_salt_sd              =   1.0050094682129E-02
(PID.TID 0000.0001) %MON dynstat_salt_del2            =   2.5070012321695E-06
(PID.TID 0000.0001) %MON trAdv_CFL_u_max              =   4.0558307273265E-03
(PID.TID 0000.0001) %MON trAdv_CFL_v_max              =   4.7837327941918E-03
(PID.TID 0000.0001) %MON trAdv_CFL_w_max              =   6.0654355140876E-03
(PID.TID 0000.0001) %MON advcfl_uvel_max              =   3.8215301669026E-03
(PID.TID 0000.0001) %MON advcfl_vvel_max              =   4.7837327941918E-03
(PID.TID 0000.0001) %MON advcfl_wvel_max              =   6.0654355140876E-03
(PID.TID 0000.0001) %MON advcfl_W_hf_max              =   6.0654355140876E-03
(PID.TID 0000.0001) %MON pe_b_mean                    =   9.0631909686652E-05
(PID.TID 0000.0001) %MON ke_max                       =   4.4177686273973E-05
(PID.TID 0000.0001) %MON ke_mean                      =   1.7540691489308E-06
(PID.TID 0000.0001) %MON ke_vol                       =   1.8654725220387E+09
(PID.TID 0000.0001) %MON vort_r_min                   =  -1.3084745057640E-04
(PID.TID 0000.0001) %MON vort_r_max                   =   1.1860151978479E-04
(PID.TID 0000.0001) %MON vort_a_mean                  =   1.0000782634673E-04
(PID.TID 0000.0001) %MON vort_a_sd                    =   1.7110023881554E-05
(PID.TID 0000.0001) %MON vort_p_mean                  =   1.1991916022492E-04
(PID.TID 0000.0001) %MON vort_p_sd                    =   7.0795961891222E-05
(PID.TID 0000.0001) %MON surfExpan_theta_mean         =  -1.4855227281846E-13
(PID.TID 0000.0001) %MON surfExpan_salt_mean          =  -6.3827529274756E-14
(PID.TID 0000.0001) // =======================================================
(PID.TID 0000.0001) // End MONITOR dynamic field statistics
(PID.TID 0000.0001) // =======================================================
(PID.TID 0000.0001) // =======================================================
(PID.TID 0000.0001) // Begin MONITOR dynamic field statistics
(PID.TID 0000.0001) // =======================================================
(PID.TID 0000.0001) %MON time_tsnumber                =                252720
(PID.TID 0000.0001) %MON time_secondsf                =   2.0217600000000E+07
(PID.TID 0000.0001) %MON dynstat_eta_max              =   2.1165259261491E-01
(PID.TID 0000.0001) %MON dynstat_eta_min              =  -1.3446731870779E-01
(PID.TID 0000.0001) %MON dynstat_eta_mean             =   1.6256343484958E-16
(PID.TID 0000.0001) %MON dynstat_eta_sd               =   6.2746673773286E-02
(PID.TID 0000.0001) %MON dynstat_eta_del2             =   1.3663540426371E-03
(PID.TID 0000.0001) %MON dynstat_uvel_max             =   8.4996615030500E-03
(PID.TID 0000.0001) %MON dynstat_uvel_min             =  -1.2520480777235E-02
(PID.TID 0000.0001) %MON dynstat_uvel_mean            =   4.5476583819281E-12
(PID.TID 0000.0001) %MON dynstat_uvel_sd              =   1.8000028008111E-03
(PID.TID 0000.0001) %MON dynstat_uvel_del2            =   1.1642482962749E-05
(PID.TID 0000.0001) %MON dynstat_vvel_max             =   5.2672262419086E-03
(PID.TID 0000.0001) %MON dynstat_vvel_min             =  -5.5944327102703E-03
(PID.TID 0000.0001) %MON dynstat_vvel_mean            =   2.5477535873587E-12
(PID.TID 0000.0001) %MON dynstat_vvel_sd              =   5.6650538903935E-04
(PID.TID 0000.0001) %MON dynstat_vvel_del2            =   1.1001249699051E-05
(PID.TID 0000.0001) %MON dynstat_wvel_max             =   9.2111300327235E-04
(PID.TID 0000.0001) %MON dynstat_wvel_min             =  -8.2763800962298E-04
(PID.TID 0000.0001) %MON dynstat_wvel_mean            =   2.9537065704907E-12
(PID.TID 0000.0001) %MON dynstat_wvel_sd              =   4.0485423329923E-05
(PID.TID 0000.0001) %MON dynstat_wvel_del2            =   1.2558821490224E-06
(PID.TID 0000.0001) %MON dynstat_theta_max            =  -2.1008833040158E+00
(PID.TID 0000.0001) %MON dynstat_theta_min            =  -2.2479584694765E+00
(PID.TID 0000.0001) %MON dynstat_theta_mean           =  -2.1248253333757E+00
(PID.TID 0000.0001) %MON dynstat_theta_sd             =   2.6192560584578E-02
(PID.TID 0000.0001) %MON dynstat_theta_del2           =   3.6102111548008E-05
(PID.TID 0000.0001) %MON dynstat_salt_max             =   3.4499957390675E+01
(PID.TID 0000.0001) %MON dynstat_salt_min             =   3.4454630132688E+01
(PID.TID 0000.0001) %MON dynstat_salt_mean            =   3.4490908721860E+01
(PID.TID 0000.0001) %MON dynstat_salt_sd              =   1.0083774809502E-02
(PID.TID 0000.0001) %MON dynstat_salt_del2            =   2.4019726819638E-06
(PID.TID 0000.0001) %MON trAdv_CFL_u_max              =   4.6094857208265E-03
(PID.TID 0000.0001) %MON trAdv_CFL_v_max              =   5.3147110747568E-03
(PID.TID 0000.0001) %MON trAdv_CFL_w_max              =   6.6990036601626E-03
(PID.TID 0000.0001) %MON advcfl_uvel_max              =   4.3423682544421E-03
(PID.TID 0000.0001) %MON advcfl_vvel_max              =   5.3147110747568E-03
(PID.TID 0000.0001) %MON advcfl_wvel_max              =   6.6990036601626E-03
(PID.TID 0000.0001) %MON advcfl_W_hf_max              =   6.6990036601626E-03
(PID.TID 0000.0001) %MON pe_b_mean                    =   9.0622972823860E-05
(PID.TID 0000.0001) %MON ke_max                       =   4.6993236554705E-05
(PID.TID 0000.0001) %MON ke_mean                      =   1.6959872949203E-06
(PID.TID 0000.0001) %MON ke_vol                       =   1.8654725220387E+09
(PID.TID 0000.0001) %MON vort_r_min                   =  -1.4868070922966E-04
(PID.TID 0000.0001) %MON vort_r_max                   =   9.8037565775636E-05
(PID.TID 0000.0001) %MON vort_a_mean                  =   1.0000782634673E-04
(PID.TID 0000.0001) %MON vort_a_sd                    =   1.6668118780997E-05
(PID.TID 0000.0001) %MON vort_p_mean                  =   1.1991916022492E-04
(PID.TID 0000.0001) %MON vort_p_sd                    =   7.0560568180660E-05
(PID.TID 0000.0001) %MON surfExpan_theta_mean         =  -1.4536737253714E-13
(PID.TID 0000.0001) %MON surfExpan_salt_mean          =  -5.9483424137142E-14
(PID.TID 0000.0001) // =======================================================
(PID.TID 0000.0001) // End MONITOR dynamic field statistics
(PID.TID 0000.0001) // =======================================================
(PID.TID 0000.0001) // =======================================================
(PID.TID 0000.0001) // Begin MONITOR dynamic field statistics
(PID.TID 0000.0001) // =======================================================
(PID.TID 0000.0001) %MON time_tsnumber                =                255960
(PID.TID 0000.0001) %MON time_secondsf                =   2.0476800000000E+07
(PID.TID 0000.0001) %MON dynstat_eta_max              =   2.1164563579422E-01
(PID.TID 0000.0001) %MON dynstat_eta_min              =  -1.3446093852403E-01
(PID.TID 0000.0001) %MON dynstat_eta_mean             =   1.6922132296629E-16
(PID.TID 0000.0001) %MON dynstat_eta_sd               =   6.2743867920443E-02
(PID.TID 0000.0001) %MON dynstat_eta_del2             =   1.3662945366222E-03
(PID.TID 0000.0001) %MON dynstat_uvel_max             =   9.2643883957787E-03
(PID.TID 0000.0001) %MON dynstat_uvel_min             =  -1.2552152568831E-02
(PID.TID 0000.0001) %MON dynstat_uvel_mean            =   2.7496851174621E-11
(PID.TID 0000.0001) %MON dynstat_uvel_sd              =   1.7932685880223E-03
(PID.TID 0000.0001) %MON dynstat_uvel_del2            =   1.0887180336030E-05
(PID.TID 0000.0001) %MON dynstat_vvel_max             =   5.6809991422591E-03
(PID.TID 0000.0001) %MON dynstat_vvel_min             =  -3.8145719460942E-03
(PID.TID 0000.0001) %MON dynstat_vvel_mean            =   5.9434633685134E-12
(PID.TID 0000.0001) %MON dynstat_vvel_sd              =   5.5571108915225E-04
(PID.TID 0000.0001) %MON dynstat_vvel_del2            =   1.0587234626070E-05
(PID.TID 0000.0001) %MON dynstat_wvel_max             =   9.2223492049122E-04
(PID.TID 0000.0001) %MON dynstat_wvel_min             =  -9.1352314460802E-04
(PID.TID 0000.0001) %MON dynstat_wvel_mean            =   2.8464617197813E-12
(PID.TID 0000.0001) %MON dynstat_wvel_sd              =   3.6679781410593E-05
(PID.TID 0000.0001) %MON dynstat_wvel_del2            =   1.0927938989654E-06
(PID.TID 0000.0001) %MON dynstat_theta_max            =  -2.1008852095069E+00
(PID.TID 0000.0001) %MON dynstat_theta_min            =  -2.2482910067618E+00
(PID.TID 0000.0001) %MON dynstat_theta_mean           =  -2.1249879087246E+00
(PID.TID 0000.0001) %MON dynstat_theta_sd             =   2.6316399967325E-02
(PID.TID 0000.0001) %MON dynstat_theta_del2           =   3.4825975825215E-05
(PID.TID 0000.0001) %MON dynstat_salt_max             =   3.4499956529990E+01
(PID.TID 0000.0001) %MON dynstat_salt_min             =   3.4454804978332E+01
(PID.TID 0000.0001) %MON dynstat_salt_mean            =   3.4490856313336E+01
(PID.TID 0000.0001) %MON dynstat_salt_sd              =   1.0118801951041E-02
(PID.TID 0000.0001) %MON dynstat_salt_del2            =   2.3424386615431E-06
(PID.TID 0000.0001) %MON trAdv_CFL_u_max              =   4.8535468062406E-03
(PID.TID 0000.0001) %MON trAdv_CFL_v_max              =   5.3969491851461E-03
(PID.TID 0000.0001) %MON trAdv_CFL_w_max              =   6.7071630581180E-03
(PID.TID 0000.0001) %MON advcfl_uvel_max              =   4.3533527034290E-03
(PID.TID 0000.0001) %MON advcfl_vvel_max              =   5.3969491851461E-03
(PID.TID 0000.0001) %MON advcfl_wvel_max              =   6.7071630581180E-03
(PID.TID 0000.0001) %MON advcfl_W_hf_max              =   6.7071630581180E-03
(PID.TID 0000.0001) %MON pe_b_mean                    =   9.0614402487911E-05
(PID.TID 0000.0001) %MON ke_max                       =   5.0421208920040E-05
(PID.TID 0000.0001) %MON ke_mean                      =   1.6789765141937E-06
(PID.TID 0000.0001) %MON ke_vol                       =   1.8654725220387E+09
(PID.TID 0000.0001) %MON vort_r_min                   =  -1.4905681175487E-04
(PID.TID 0000.0001) %MON vort_r_max                   =   1.1001461219987E-04
(PID.TID 0000.0001) %MON vort_a_mean                  =   1.0000782634673E-04
(PID.TID 0000.0001) %MON vort_a_sd                    =   1.6433399158085E-05
(PID.TID 0000.0001) %MON vort_p_mean                  =   1.1991916022492E-04
(PID.TID 0000.0001) %MON vort_p_sd                    =   6.9692565840309E-05
(PID.TID 0000.0001) %MON surfExpan_theta_mean         =  -1.5984578938687E-13
(PID.TID 0000.0001) %MON surfExpan_salt_mean          =  -6.5452508025331E-14
(PID.TID 0000.0001) // =======================================================
(PID.TID 0000.0001) // End MONITOR dynamic field statistics
(PID.TID 0000.0001) // =======================================================
(PID.TID 0000.0001) // =======================================================
(PID.TID 0000.0001) // Begin MONITOR dynamic field statistics
(PID.TID 0000.0001) // =======================================================
(PID.TID 0000.0001) %MON time_tsnumber                =                259200
(PID.TID 0000.0001) %MON time_secondsf                =   2.0736000000000E+07
(PID.TID 0000.0001) %MON dynstat_eta_max              =   2.1163874542637E-01
(PID.TID 0000.0001) %MON dynstat_eta_min              =  -1.3445706602275E-01
(PID.TID 0000.0001) %MON dynstat_eta_mean             =   1.5923449079123E-16
(PID.TID 0000.0001) %MON dynstat_eta_sd               =   6.2740989213230E-02
(PID.TID 0000.0001) %MON dynstat_eta_del2             =   1.3662423087138E-03
(PID.TID 0000.0001) %MON dynstat_uvel_max             =   7.9191965581538E-03
(PID.TID 0000.0001) %MON dynstat_uvel_min             =  -1.2115644108490E-02
(PID.TID 0000.0001) %MON dynstat_uvel_mean            =  -4.3054276954570E-12
(PID.TID 0000.0001) %MON dynstat_uvel_sd              =   1.7840580841851E-03
(PID.TID 0000.0001) %MON dynstat_uvel_del2            =   1.0874354469719E-05
(PID.TID 0000.0001) %MON dynstat_vvel_max             =   4.7031992885626E-03
(PID.TID 0000.0001) %MON dynstat_vvel_min             =  -5.5535154519788E-03
(PID.TID 0000.0001) %MON dynstat_vvel_mean            =   5.3841268399223E-12
(PID.TID 0000.0001) %MON dynstat_vvel_sd              =   5.4464919888324E-04
(PID.TID 0000.0001) %MON dynstat_vvel_del2            =   1.0247844102249E-05
(PID.TID 0000.0001) %MON dynstat_wvel_max             =   7.3656480672040E-04
(PID.TID 0000.0001) %MON dynstat_wvel_min             =  -7.4289155302449E-04
(PID.TID 0000.0001) %MON dynstat_wvel_mean            =   3.1749842133948E-12
(PID.TID 0000.0001) %MON dynstat_wvel_sd              =   3.6816924970708E-05
(PID.TID 0000.0001) %MON dynstat_wvel_del2            =   1.1594815117358E-06
(PID.TID 0000.0001) %MON dynstat_theta_max            =  -2.1008867199671E+00
(PID.TID 0000.0001) %MON dynstat_theta_min            =  -2.2492623083898E+00
(PID.TID 0000.0001) %MON dynstat_theta_mean           =  -2.1251513046662E+00
(PID.TID 0000.0001) %MON dynstat_theta_sd             =   2.6440665066609E-02
(PID.TID 0000.0001) %MON dynstat_theta_del2           =   3.2777830684994E-05
(PID.TID 0000.0001) %MON dynstat_salt_max             =   3.4499955948634E+01
(PID.TID 0000.0001) %MON dynstat_salt_min             =   3.4455562939548E+01
(PID.TID 0000.0001) %MON dynstat_salt_mean            =   3.4490803566694E+01
(PID.TID 0000.0001) %MON dynstat_salt_sd              =   1.0154755459663E-02
(PID.TID 0000.0001) %MON dynstat_salt_del2            =   2.2970892681732E-06
(PID.TID 0000.0001) %MON trAdv_CFL_u_max              =   4.2019623123807E-03
(PID.TID 0000.0001) %MON trAdv_CFL_v_max              =   5.2758396793799E-03
(PID.TID 0000.0001) %MON trAdv_CFL_w_max              =   5.4028476583599E-03
(PID.TID 0000.0001) %MON advcfl_uvel_max              =   4.2019623123807E-03
(PID.TID 0000.0001) %MON advcfl_vvel_max              =   5.2758396793799E-03
(PID.TID 0000.0001) %MON advcfl_wvel_max              =   5.4028476583599E-03
(PID.TID 0000.0001) %MON advcfl_W_hf_max              =   5.4438388774515E-03
(PID.TID 0000.0001) %MON pe_b_mean                    =   9.0605563682481E-05
(PID.TID 0000.0001) %MON ke_max                       =   4.9013353791051E-05
(PID.TID 0000.0001) %MON ke_mean                      =   1.6577463355178E-06
(PID.TID 0000.0001) %MON ke_vol                       =   1.8654725220387E+09
(PID.TID 0000.0001) %MON vort_r_min                   =  -1.4387327378832E-04
(PID.TID 0000.0001) %MON vort_r_max                   =   9.4040459128077E-05
(PID.TID 0000.0001) %MON vort_a_mean                  =   1.0000782634673E-04
(PID.TID 0000.0001) %MON vort_a_sd                    =   1.6380348517319E-05
(PID.TID 0000.0001) %MON vort_p_mean                  =   1.1991916022492E-04
(PID.TID 0000.0001) %MON vort_p_sd                    =   6.9275372396599E-05
(PID.TID 0000.0001) %MON surfExpan_theta_mean         =  -1.5579915695351E-13
(PID.TID 0000.0001) %MON surfExpan_salt_mean          =  -6.5708641730485E-14
(PID.TID 0000.0001) // =======================================================
(PID.TID 0000.0001) // End MONITOR dynamic field statistics
(PID.TID 0000.0001) // =======================================================
(PID.TID 0000.0001) // =======================================================
(PID.TID 0000.0001) // Begin MONITOR dynamic field statistics
(PID.TID 0000.0001) // =======================================================
(PID.TID 0000.0001) %MON time_tsnumber                =                262440
(PID.TID 0000.0001) %MON time_secondsf                =   2.0995200000000E+07
(PID.TID 0000.0001) %MON dynstat_eta_max              =   2.1163191240228E-01
(PID.TID 0000.0001) %MON dynstat_eta_min              =  -1.3445243602428E-01
(PID.TID 0000.0001) %MON dynstat_eta_mean             =   1.6117637482527E-16
(PID.TID 0000.0001) %MON dynstat_eta_sd               =   6.2738180412257E-02
(PID.TID 0000.0001) %MON dynstat_eta_del2             =   1.3661992468347E-03
(PID.TID 0000.0001) %MON dynstat_uvel_max             =   1.0465532332395E-02
(PID.TID 0000.0001) %MON dynstat_uvel_min             =  -1.2922588898258E-02
(PID.TID 0000.0001) %MON dynstat_uvel_mean            =   1.8146171353848E-11
(PID.TID 0000.0001) %MON dynstat_uvel_sd              =   1.7921738503746E-03
(PID.TID 0000.0001) %MON dynstat_uvel_del2            =   1.0544122403220E-05
(PID.TID 0000.0001) %MON dynstat_vvel_max             =   5.0291339443279E-03
(PID.TID 0000.0001) %MON dynstat_vvel_min             =  -4.9405920688076E-03
(PID.TID 0000.0001) %MON dynstat_vvel_mean            =   3.8650515602182E-12
(PID.TID 0000.0001) %MON dynstat_vvel_sd              =   5.3996525611971E-04
(PID.TID 0000.0001) %MON dynstat_vvel_del2            =   9.9028905344916E-06
(PID.TID 0000.0001) %MON dynstat_wvel_max             =   8.4466660598266E-04
(PID.TID 0000.0001) %MON dynstat_wvel_min             =  -9.1724382453950E-04
(PID.TID 0000.0001) %MON dynstat_wvel_mean            =   2.8926988137260E-12
(PID.TID 0000.0001) %MON dynstat_wvel_sd              =   3.5363480367806E-05
(PID.TID 0000.0001) %MON dynstat_wvel_del2            =   1.0521020889229E-06
(PID.TID 0000.0001) %MON dynstat_theta_max            =  -2.1008892632607E+00
(PID.TID 0000.0001) %MON dynstat_theta_min            =  -2.2492753682884E+00
(PID.TID 0000.0001) %MON dynstat_theta_mean           =  -2.1253119657064E+00
(PID.TID 0000.0001) %MON dynstat_theta_sd             =   2.6573376127647E-02
(PID.TID 0000.0001) %MON dynstat_theta_del2           =   3.5607530827229E-05
(PID.TID 0000.0001) %MON dynstat_salt_max             =   3.4499955655058E+01
(PID.TID 0000.0001) %MON dynstat_salt_min             =   3.4455126151654E+01
(PID.TID 0000.0001) %MON dynstat_salt_mean            =   3.4490751946438E+01
(PID.TID 0000.0001) %MON dynstat_salt_sd              =   1.0190093665325E-02
(PID.TID 0000.0001) %MON dynstat_salt_del2            =   2.3497540710271E-06
(PID.TID 0000.0001) %MON trAdv_CFL_u_max              =   4.8209163527694E-03
(PID.TID 0000.0001) %MON trAdv_CFL_v_max              =   4.7776772471115E-03
(PID.TID 0000.0001) %MON trAdv_CFL_w_max              =   6.6708641784691E-03
(PID.TID 0000.0001) %MON advcfl_uvel_max              =   4.4818278782899E-03
(PID.TID 0000.0001) %MON advcfl_vvel_max              =   4.7776772471115E-03
(PID.TID 0000.0001) %MON advcfl_wvel_max              =   6.6708641784691E-03
(PID.TID 0000.0001) %MON advcfl_W_hf_max              =   6.6708641784691E-03
(PID.TID 0000.0001) %MON pe_b_mean                    =   9.0596897781124E-05
(PID.TID 0000.0001) %MON ke_max                       =   5.7936902422542E-05
(PID.TID 0000.0001) %MON ke_mean                      =   1.6693821345204E-06
(PID.TID 0000.0001) %MON ke_vol                       =   1.8654725220387E+09
(PID.TID 0000.0001) %MON vort_r_min                   =  -1.5345574316682E-04
(PID.TID 0000.0001) %MON vort_r_max                   =   1.2427819644720E-04
(PID.TID 0000.0001) %MON vort_a_mean                  =   1.0000782634673E-04
(PID.TID 0000.0001) %MON vort_a_sd                    =   1.6440906646511E-05
(PID.TID 0000.0001) %MON vort_p_mean                  =   1.1991916022492E-04
(PID.TID 0000.0001) %MON vort_p_sd                    =   6.9316328852157E-05
(PID.TID 0000.0001) %MON surfExpan_theta_mean         =  -1.5265774572722E-13
(PID.TID 0000.0001) %MON surfExpan_salt_mean          =  -6.2933127338665E-14
(PID.TID 0000.0001) // =======================================================
(PID.TID 0000.0001) // End MONITOR dynamic field statistics
(PID.TID 0000.0001) // =======================================================
(PID.TID 0000.0001) %CHECKPOINT    263520 0000263520
(PID.TID 0000.0001) // =======================================================
(PID.TID 0000.0001) // Begin MONITOR dynamic field statistics
(PID.TID 0000.0001) // =======================================================
(PID.TID 0000.0001) %MON time_tsnumber                =                265680
(PID.TID 0000.0001) %MON time_secondsf                =   2.1254400000000E+07
(PID.TID 0000.0001) %MON dynstat_eta_max              =   2.1162520323382E-01
(PID.TID 0000.0001) %MON dynstat_eta_min              =  -1.3444801718548E-01
(PID.TID 0000.0001) %MON dynstat_eta_mean             =   1.5895707878637E-16
(PID.TID 0000.0001) %MON dynstat_eta_sd               =   6.2735443735371E-02
(PID.TID 0000.0001) %MON dynstat_eta_del2             =   1.3661428777976E-03
(PID.TID 0000.0001) %MON dynstat_uvel_max             =   1.0067769918720E-02
(PID.TID 0000.0001) %MON dynstat_uvel_min             =  -1.1058318207765E-02
(PID.TID 0000.0001) %MON dynstat_uvel_mean            =   1.6944819668706E-11
(PID.TID 0000.0001) %MON dynstat_uvel_sd              =   1.8083228850347E-03
(PID.TID 0000.0001) %MON dynstat_uvel_del2            =   1.1926229230377E-05
(PID.TID 0000.0001) %MON dynstat_vvel_max             =   4.0702818558795E-03
(PID.TID 0000.0001) %MON dynstat_vvel_min             =  -5.5233676515791E-03
(PID.TID 0000.0001) %MON dynstat_vvel_mean            =   4.7373722166081E-12
(PID.TID 0000.0001) %MON dynstat_vvel_sd              =   5.3336911143991E-04
(PID.TID 0000.0001) %MON dynstat_vvel_del2            =   9.7187971677815E-06
(PID.TID 0000.0001) %MON dynstat_wvel_max             =   7.0773697084099E-04
(PID.TID 0000.0001) %MON dynstat_wvel_min             =  -8.8146274065523E-04
(PID.TID 0000.0001) %MON dynstat_wvel_mean            =   2.9742461433637E-12
(PID.TID 0000.0001) %MON dynstat_wvel_sd              =   4.2984418464095E-05
(PID.TID 0000.0001) %MON dynstat_wvel_del2            =   1.4797507083542E-06
(PID.TID 0000.0001) %MON dynstat_theta_max            =  -2.1008930346085E+00
(PID.TID 0000.0001) %MON dynstat_theta_min            =  -2.2504222365895E+00
(PID.TID 0000.0001) %MON dynstat_theta_mean           =  -2.1254709237253E+00
(PID.TID 0000.0001) %MON dynstat_theta_sd             =   2.6687775888466E-02
(PID.TID 0000.0001) %MON dynstat_theta_del2           =   3.4453599078587E-05
(PID.TID 0000.0001) %MON dynstat_salt_max             =   3.4499954865748E+01
(PID.TID 0000.0001) %MON dynstat_salt_min             =   3.4455749019749E+01
(PID.TID 0000.0001) %MON dynstat_salt_mean            =   3.4490701027703E+01
(PID.TID 0000.0001) %MON dynstat_salt_sd              =   1.0225300128338E-02
(PID.TID 0000.0001) %MON dynstat_salt_del2            =   2.3384717252680E-06
(PID.TID 0000.0001) %MON trAdv_CFL_u_max              =   4.3673468585160E-03
(PID.TID 0000.0001) %MON trAdv_CFL_v_max              =   5.2471992690001E-03
(PID.TID 0000.0001) %MON trAdv_CFL_w_max              =   6.4106381138562E-03
(PID.TID 0000.0001) %MON advcfl_uvel_max              =   3.8352592673781E-03
(PID.TID 0000.0001) %MON advcfl_vvel_max              =   5.2471992690001E-03
(PID.TID 0000.0001) %MON advcfl_wvel_max              =   6.4106381138562E-03
(PID.TID 0000.0001) %MON advcfl_W_hf_max              =   6.4106381138562E-03
(PID.TID 0000.0001) %MON pe_b_mean                    =   9.0588456005821E-05
(PID.TID 0000.0001) %MON ke_max                       =   4.4506859212114E-05
(PID.TID 0000.0001) %MON ke_mean                      =   1.6940775106980E-06
(PID.TID 0000.0001) %MON ke_vol                       =   1.8654725220387E+09
(PID.TID 0000.0001) %MON vort_r_min                   =  -1.3131752871721E-04
(PID.TID 0000.0001) %MON vort_r_max                   =   1.1955476778479E-04
(PID.TID 0000.0001) %MON vort_a_mean                  =   1.0000782634673E-04
(PID.TID 0000.0001) %MON vort_a_sd                    =   1.6633233787498E-05
(PID.TID 0000.0001) %MON vort_p_mean                  =   1.1991916022492E-04
(PID.TID 0000.0001) %MON vort_p_sd                    =   6.9491217939007E-05
(PID.TID 0000.0001) %MON surfExpan_theta_mean         =  -1.5655012202496E-13
(PID.TID 0000.0001) %MON surfExpan_salt_mean          =  -6.4929908574126E-14
(PID.TID 0000.0001) // =======================================================
(PID.TID 0000.0001) // End MONITOR dynamic field statistics
(PID.TID 0000.0001) // =======================================================
(PID.TID 0000.0001) // =======================================================
(PID.TID 0000.0001) // Begin MONITOR dynamic field statistics
(PID.TID 0000.0001) // =======================================================
(PID.TID 0000.0001) %MON time_tsnumber                =                268920
(PID.TID 0000.0001) %MON time_secondsf                =   2.1513600000000E+07
(PID.TID 0000.0001) %MON dynstat_eta_max              =   2.1161873807415E-01
(PID.TID 0000.0001) %MON dynstat_eta_min              =  -1.3444187947859E-01
(PID.TID 0000.0001) %MON dynstat_eta_mean             =   1.5257660267452E-16
(PID.TID 0000.0001) %MON dynstat_eta_sd               =   6.2732736912489E-02
(PID.TID 0000.0001) %MON dynstat_eta_del2             =   1.3660986728492E-03
(PID.TID 0000.0001) %MON dynstat_uvel_max             =   8.2130277485709E-03
(PID.TID 0000.0001) %MON dynstat_uvel_min             =  -9.0741146948990E-03
(PID.TID 0000.0001) %MON dynstat_uvel_mean            =   9.5093647283750E-12
(PID.TID 0000.0001) %MON dynstat_uvel_sd              =   1.7928194237646E-03
(PID.TID 0000.0001) %MON dynstat_uvel_del2            =   1.1712406899176E-05
(PID.TID 0000.0001) %MON dynstat_vvel_max             =   3.5834374192591E-03
(PID.TID 0000.0001) %MON dynstat_vvel_min             =  -4.9694775969694E-03
(PID.TID 0000.0001) %MON dynstat_vvel_mean            =   3.6603532510084E-12
(PID.TID 0000.0001) %MON dynstat_vvel_sd              =   5.3325355370345E-04
(PID.TID 0000.0001) %MON dynstat_vvel_del2            =   1.0041298478762E-05
(PID.TID 0000.0001) %MON dynstat_wvel_max             =   8.7103496381334E-04
(PID.TID 0000.0001) %MON dynstat_wvel_min             =  -5.9377922322678E-04
(PID.TID 0000.0001) %MON dynstat_wvel_mean            =   2.8303976994399E-12
(PID.TID 0000.0001) %MON dynstat_wvel_sd              =   4.0592716722782E-05
(PID.TID 0000.0001) %MON dynstat_wvel_del2            =   1.3260068944042E-06
(PID.TID 0000.0001) %MON dynstat_theta_max            =  -2.1008974357194E+00
(PID.TID 0000.0001) %MON dynstat_theta_min            =  -2.2511279832005E+00
(PID.TID 0000.0001) %MON dynstat_theta_mean           =  -2.1256269850349E+00
(PID.TID 0000.0001) %MON dynstat_theta_sd             =   2.6798855091695E-02
(PID.TID 0000.0001) %MON dynstat_theta_del2           =   3.2841172168141E-05
(PID.TID 0000.0001) %MON dynstat_salt_max             =   3.4499954543594E+01
(PID.TID 0000.0001) %MON dynstat_salt_min             =   3.4456186780038E+01
(PID.TID 0000.0001) %MON dynstat_salt_mean            =   3.4490651302181E+01
(PID.TID 0000.0001) %MON dynstat_salt_sd              =   1.0259529755863E-02
(PID.TID 0000.0001) %MON dynstat_salt_del2            =   2.3067756891343E-06
(PID.TID 0000.0001) %MON trAdv_CFL_u_max              =   3.7083278077972E-03
(PID.TID 0000.0001) %MON trAdv_CFL_v_max              =   4.7210037171209E-03
(PID.TID 0000.0001) %MON trAdv_CFL_w_max              =   6.3347997368243E-03
(PID.TID 0000.0001) %MON advcfl_uvel_max              =   3.1470954102610E-03
(PID.TID 0000.0001) %MON advcfl_vvel_max              =   4.7210037171209E-03
(PID.TID 0000.0001) %MON advcfl_wvel_max              =   6.3347997368243E-03
(PID.TID 0000.0001) %MON advcfl_W_hf_max              =   6.3347997368243E-03
(PID.TID 0000.0001) %MON pe_b_mean                    =   9.0580141709637E-05
(PID.TID 0000.0001) %MON ke_max                       =   3.2711969568658E-05
(PID.TID 0000.0001) %MON ke_mean                      =   1.6672705508963E-06
(PID.TID 0000.0001) %MON ke_vol                       =   1.8654725220387E+09
(PID.TID 0000.0001) %MON vort_r_min                   =  -1.1765443835783E-04
(PID.TID 0000.0001) %MON vort_r_max                   =   9.6798961260767E-05
(PID.TID 0000.0001) %MON vort_a_mean                  =   1.0000782634673E-04
(PID.TID 0000.0001) %MON vort_a_sd                    =   1.6460735199532E-05
(PID.TID 0000.0001) %MON vort_p_mean                  =   1.1991916022492E-04
(PID.TID 0000.0001) %MON vort_p_sd                    =   6.9517234759003E-05
(PID.TID 0000.0001) %MON surfExpan_theta_mean         =  -1.4547770213278E-13
(PID.TID 0000.0001) %MON surfExpan_salt_mean          =  -6.0396391264489E-14
(PID.TID 0000.0001) // =======================================================
(PID.TID 0000.0001) // End MONITOR dynamic field statistics
(PID.TID 0000.0001) // =======================================================
(PID.TID 0000.0001) // =======================================================
(PID.TID 0000.0001) // Begin MONITOR dynamic field statistics
(PID.TID 0000.0001) // =======================================================
(PID.TID 0000.0001) %MON time_tsnumber                =                272160
(PID.TID 0000.0001) %MON time_secondsf                =   2.1772800000000E+07
(PID.TID 0000.0001) %MON dynstat_eta_max              =   2.1161263528390E-01
(PID.TID 0000.0001) %MON dynstat_eta_min              =  -1.3443868394697E-01
(PID.TID 0000.0001) %MON dynstat_eta_mean             =   1.7587921108300E-16
(PID.TID 0000.0001) %MON dynstat_eta_sd               =   6.2730130758802E-02
(PID.TID 0000.0001) %MON dynstat_eta_del2             =   1.3660443163092E-03
(PID.TID 0000.0001) %MON dynstat_uvel_max             =   8.9610782487375E-03
(PID.TID 0000.0001) %MON dynstat_uvel_min             =  -1.0595142839991E-02
(PID.TID 0000.0001) %MON dynstat_uvel_mean            =   7.8322565482622E-12
(PID.TID 0000.0001) %MON dynstat_uvel_sd              =   1.7729780293831E-03
(PID.TID 0000.0001) %MON dynstat_uvel_del2            =   1.2661502481855E-05
(PID.TID 0000.0001) %MON dynstat_vvel_max             =   3.9557724266936E-03
(PID.TID 0000.0001) %MON dynstat_vvel_min             =  -4.6894513606882E-03
(PID.TID 0000.0001) %MON dynstat_vvel_mean            =   3.8160933589569E-12
(PID.TID 0000.0001) %MON dynstat_vvel_sd              =   5.3052996544851E-04
(PID.TID 0000.0001) %MON dynstat_vvel_del2            =   1.0610624349387E-05
(PID.TID 0000.0001) %MON dynstat_wvel_max             =   6.9619796489877E-04
(PID.TID 0000.0001) %MON dynstat_wvel_min             =  -7.5646478635636E-04
(PID.TID 0000.0001) %MON dynstat_wvel_mean            =   2.7893585554257E-12
(PID.TID 0000.0001) %MON dynstat_wvel_sd              =   4.3499894405793E-05
(PID.TID 0000.0001) %MON dynstat_wvel_del2            =   1.5541706212087E-06
(PID.TID 0000.0001) %MON dynstat_theta_max            =  -2.1008986869467E+00
(PID.TID 0000.0001) %MON dynstat_theta_min            =  -2.2508759267565E+00
(PID.TID 0000.0001) %MON dynstat_theta_mean           =  -2.1257797882290E+00
(PID.TID 0000.0001) %MON dynstat_theta_sd             =   2.6920299911206E-02
(PID.TID 0000.0001) %MON dynstat_theta_del2           =   3.6169434155411E-05
(PID.TID 0000.0001) %MON dynstat_salt_max             =   3.4499953959506E+01
(PID.TID 0000.0001) %MON dynstat_salt_min             =   3.4455602822124E+01
(PID.TID 0000.0001) %MON dynstat_salt_mean            =   3.4490602918646E+01
(PID.TID 0000.0001) %MON dynstat_salt_sd              =   1.0292044137357E-02
(PID.TID 0000.0001) %MON dynstat_salt_del2            =   2.4189987711708E-06
(PID.TID 0000.0001) %MON trAdv_CFL_u_max              =   3.9973429439318E-03
(PID.TID 0000.0001) %MON trAdv_CFL_v_max              =   4.4549787926538E-03
(PID.TID 0000.0001) %MON trAdv_CFL_w_max              =   5.5015620825917E-03
(PID.TID 0000.0001) %MON advcfl_uvel_max              =   3.6746202273087E-03
(PID.TID 0000.0001) %MON advcfl_vvel_max              =   4.4549787926538E-03
(PID.TID 0000.0001) %MON advcfl_wvel_max              =   5.5015620825917E-03
(PID.TID 0000.0001) %MON advcfl_W_hf_max              =   6.0570111800325E-03
(PID.TID 0000.0001) %MON pe_b_mean                    =   9.0572129328409E-05
(PID.TID 0000.0001) %MON ke_max                       =   3.8604510984304E-05
(PID.TID 0000.0001) %MON ke_mean                      =   1.6320740540025E-06
(PID.TID 0000.0001) %MON ke_vol                       =   1.8654725220387E+09
(PID.TID 0000.0001) %MON vort_r_min                   =  -1.2581732122489E-04
(PID.TID 0000.0001) %MON vort_r_max                   =   1.0641280420376E-04
(PID.TID 0000.0001) %MON vort_a_mean                  =   1.0000782634673E-04
(PID.TID 0000.0001) %MON vort_a_sd                    =   1.6257360189490E-05
(PID.TID 0000.0001) %MON vort_p_mean                  =   1.1991916022492E-04
(PID.TID 0000.0001) %MON vort_p_sd                    =   6.9712824073861E-05
(PID.TID 0000.0001) %MON surfExpan_theta_mean         =  -1.3792694975603E-13
(PID.TID 0000.0001) %MON surfExpan_salt_mean          =  -5.7375350543044E-14
(PID.TID 0000.0001) // =======================================================
(PID.TID 0000.0001) // End MONITOR dynamic field statistics
(PID.TID 0000.0001) // =======================================================
(PID.TID 0000.0001) // =======================================================
(PID.TID 0000.0001) // Begin MONITOR dynamic field statistics
(PID.TID 0000.0001) // =======================================================
(PID.TID 0000.0001) %MON time_tsnumber                =                275400
(PID.TID 0000.0001) %MON time_secondsf                =   2.2032000000000E+07
(PID.TID 0000.0001) %MON dynstat_eta_max              =   2.1160659224663E-01
(PID.TID 0000.0001) %MON dynstat_eta_min              =  -1.3443456396598E-01
(PID.TID 0000.0001) %MON dynstat_eta_mean             =   1.7393732704896E-16
(PID.TID 0000.0001) %MON dynstat_eta_sd               =   6.2727484387408E-02
(PID.TID 0000.0001) %MON dynstat_eta_del2             =   1.3659860242877E-03
(PID.TID 0000.0001) %MON dynstat_uvel_max             =   8.8122912170311E-03
(PID.TID 0000.0001) %MON dynstat_uvel_min             =  -8.9100870533652E-03
(PID.TID 0000.0001) %MON dynstat_uvel_mean            =   1.9244937987554E-11
(PID.TID 0000.0001) %MON dynstat_uvel_sd              =   1.7515210780244E-03
(PID.TID 0000.0001) %MON dynstat_uvel_del2            =   1.1750019405442E-05
(PID.TID 0000.0001) %MON dynstat_vvel_max             =   3.6478410586228E-03
(PID.TID 0000.0001) %MON dynstat_vvel_min             =  -5.0839836774564E-03
(PID.TID 0000.0001) %MON dynstat_vvel_mean            =   4.3427610806855E-12
(PID.TID 0000.0001) %MON dynstat_vvel_sd              =   5.2312625634933E-04
(PID.TID 0000.0001) %MON dynstat_vvel_del2            =   1.0204941723421E-05
(PID.TID 0000.0001) %MON dynstat_wvel_max             =   5.5848718981462E-04
(PID.TID 0000.0001) %MON dynstat_wvel_min             =  -6.3533186432234E-04
(PID.TID 0000.0001) %MON dynstat_wvel_mean            =   2.7705361608555E-12
(PID.TID 0000.0001) %MON dynstat_wvel_sd              =   4.0611500396647E-05
(PID.TID 0000.0001) %MON dynstat_wvel_del2            =   1.4463133520037E-06
(PID.TID 0000.0001) %MON dynstat_theta_max            =  -2.1009007923795E+00
(PID.TID 0000.0001) %MON dynstat_theta_min            =  -2.2517854683043E+00
(PID.TID 0000.0001) %MON dynstat_theta_mean           =  -2.1259304464680E+00
(PID.TID 0000.0001) %MON dynstat_theta_sd             =   2.7026390813706E-02
(PID.TID 0000.0001) %MON dynstat_theta_del2           =   3.7964561266854E-05
(PID.TID 0000.0001) %MON dynstat_salt_max             =   3.4499953437515E+01
(PID.TID 0000.0001) %MON dynstat_salt_min             =   3.4456283397524E+01
(PID.TID 0000.0001) %MON dynstat_salt_mean            =   3.4490555418651E+01
(PID.TID 0000.0001) %MON dynstat_salt_sd              =   1.0324101564590E-02
(PID.TID 0000.0001) %MON dynstat_salt_del2            =   2.5396018989664E-06
(PID.TID 0000.0001) %MON trAdv_CFL_u_max              =   3.8797156407427E-03
(PID.TID 0000.0001) %MON trAdv_CFL_v_max              =   4.8297844935835E-03
(PID.TID 0000.0001) %MON trAdv_CFL_w_max              =   4.6205953768897E-03
(PID.TID 0000.0001) %MON advcfl_uvel_max              =   3.0902071456552E-03
(PID.TID 0000.0001) %MON advcfl_vvel_max              =   4.8297844935835E-03
(PID.TID 0000.0001) %MON advcfl_wvel_max              =   4.6205953768897E-03
(PID.TID 0000.0001) %MON advcfl_W_hf_max              =   6.5217385606018E-03
(PID.TID 0000.0001) %MON pe_b_mean                    =   9.0564020714267E-05
(PID.TID 0000.0001) %MON ke_max                       =   3.1474183734925E-05
(PID.TID 0000.0001) %MON ke_mean                      =   1.5923493669393E-06
(PID.TID 0000.0001) %MON ke_vol                       =   1.8654725220387E+09
(PID.TID 0000.0001) %MON vort_r_min                   =  -1.1651349587535E-04
(PID.TID 0000.0001) %MON vort_r_max                   =   9.7130734790599E-05
(PID.TID 0000.0001) %MON vort_a_mean                  =   1.0000782634673E-04
(PID.TID 0000.0001) %MON vort_a_sd                    =   1.6024441915928E-05
(PID.TID 0000.0001) %MON vort_p_mean                  =   1.1991916022492E-04
(PID.TID 0000.0001) %MON vort_p_sd                    =   6.9821064315521E-05
(PID.TID 0000.0001) %MON surfExpan_theta_mean         =  -1.5280147817345E-13
(PID.TID 0000.0001) %MON surfExpan_salt_mean          =  -6.0647994213480E-14
(PID.TID 0000.0001) // =======================================================
(PID.TID 0000.0001) // End MONITOR dynamic field statistics
(PID.TID 0000.0001) // =======================================================
(PID.TID 0000.0001) // =======================================================
(PID.TID 0000.0001) // Begin MONITOR dynamic field statistics
(PID.TID 0000.0001) // =======================================================
(PID.TID 0000.0001) %MON time_tsnumber                =                278640
(PID.TID 0000.0001) %MON time_secondsf                =   2.2291200000000E+07
(PID.TID 0000.0001) %MON dynstat_eta_max              =   2.1160048043071E-01
(PID.TID 0000.0001) %MON dynstat_eta_min              =  -1.3442952734905E-01
(PID.TID 0000.0001) %MON dynstat_eta_mean             =   1.9002722333100E-16
(PID.TID 0000.0001) %MON dynstat_eta_sd               =   6.2724912544255E-02
(PID.TID 0000.0001) %MON dynstat_eta_del2             =   1.3659295595117E-03
(PID.TID 0000.0001) %MON dynstat_uvel_max             =   8.0119671218651E-03
(PID.TID 0000.0001) %MON dynstat_uvel_min             =  -8.3251443277155E-03
(PID.TID 0000.0001) %MON dynstat_uvel_mean            =   1.1084820789710E-11
(PID.TID 0000.0001) %MON dynstat_uvel_sd              =   1.7472719809598E-03
(PID.TID 0000.0001) %MON dynstat_uvel_del2            =   1.1510433632019E-05
(PID.TID 0000.0001) %MON dynstat_vvel_max             =   3.6402731776811E-03
(PID.TID 0000.0001) %MON dynstat_vvel_min             =  -4.8716233673595E-03
(PID.TID 0000.0001) %MON dynstat_vvel_mean            =   5.1372597554545E-12
(PID.TID 0000.0001) %MON dynstat_vvel_sd              =   5.2149064834653E-04
(PID.TID 0000.0001) %MON dynstat_vvel_del2            =   1.0277943888719E-05
(PID.TID 0000.0001) %MON dynstat_wvel_max             =   5.3368572854619E-04
(PID.TID 0000.0001) %MON dynstat_wvel_min             =  -5.0123480281617E-04
(PID.TID 0000.0001) %MON dynstat_wvel_mean            =   2.7719893137036E-12
(PID.TID 0000.0001) %MON dynstat_wvel_sd              =   3.8954260586941E-05
(PID.TID 0000.0001) %MON dynstat_wvel_del2            =   1.3081624745111E-06
(PID.TID 0000.0001) %MON dynstat_theta_max            =  -2.1009033238081E+00
(PID.TID 0000.0001) %MON dynstat_theta_min            =  -2.2519860420165E+00
(PID.TID 0000.0001) %MON dynstat_theta_mean           =  -2.1260801075452E+00
(PID.TID 0000.0001) %MON dynstat_theta_sd             =   2.7134506732146E-02
(PID.TID 0000.0001) %MON dynstat_theta_del2           =   3.7131413845477E-05
(PID.TID 0000.0001) %MON dynstat_salt_max             =   3.4499953105175E+01
(PID.TID 0000.0001) %MON dynstat_salt_min             =   3.4456196346816E+01
(PID.TID 0000.0001) %MON dynstat_salt_mean            =   3.4490508329481E+01
(PID.TID 0000.0001) %MON dynstat_salt_sd              =   1.0356896607894E-02
(PID.TID 0000.0001) %MON dynstat_salt_del2            =   2.5868052427058E-06
(PID.TID 0000.0001) %MON trAdv_CFL_u_max              =   3.8721275779278E-03
(PID.TID 0000.0001) %MON trAdv_CFL_v_max              =   4.6280421989915E-03
(PID.TID 0000.0001) %MON trAdv_CFL_w_max              =   3.8813507530632E-03
(PID.TID 0000.0001) %MON advcfl_uvel_max              =   2.8873366035633E-03
(PID.TID 0000.0001) %MON advcfl_vvel_max              =   4.6280421989915E-03
(PID.TID 0000.0001) %MON advcfl_wvel_max              =   3.8813507530632E-03
(PID.TID 0000.0001) %MON advcfl_W_hf_max              =   6.2369796947101E-03
(PID.TID 0000.0001) %MON pe_b_mean                    =   9.0556077944224E-05
(PID.TID 0000.0001) %MON ke_max                       =   2.5287994731461E-05
(PID.TID 0000.0001) %MON ke_mean                      =   1.5844618466464E-06
(PID.TID 0000.0001) %MON ke_vol                       =   1.8654725220387E+09
(PID.TID 0000.0001) %MON vort_r_min                   =  -1.1905388324577E-04
(PID.TID 0000.0001) %MON vort_r_max                   =   9.8077522474763E-05
(PID.TID 0000.0001) %MON vort_a_mean                  =   1.0000782634673E-04
(PID.TID 0000.0001) %MON vort_a_sd                    =   1.6138345394748E-05
(PID.TID 0000.0001) %MON vort_p_mean                  =   1.1991916022492E-04
(PID.TID 0000.0001) %MON vort_p_sd                    =   6.9318210288637E-05
(PID.TID 0000.0001) %MON surfExpan_theta_mean         =  -1.4333299581617E-13
(PID.TID 0000.0001) %MON surfExpan_salt_mean          =  -5.8449160384974E-14
(PID.TID 0000.0001) // =======================================================
(PID.TID 0000.0001) // End MONITOR dynamic field statistics
(PID.TID 0000.0001) // =======================================================
(PID.TID 0000.0001) // =======================================================
(PID.TID 0000.0001) // Begin MONITOR dynamic field statistics
(PID.TID 0000.0001) // =======================================================
(PID.TID 0000.0001) %MON time_tsnumber                =                281880
(PID.TID 0000.0001) %MON time_secondsf                =   2.2550400000000E+07
(PID.TID 0000.0001) %MON dynstat_eta_max              =   2.1159450368352E-01
(PID.TID 0000.0001) %MON dynstat_eta_min              =  -1.3442540590281E-01
(PID.TID 0000.0001) %MON dynstat_eta_mean             =   1.9085945934558E-16
(PID.TID 0000.0001) %MON dynstat_eta_sd               =   6.2722171626237E-02
(PID.TID 0000.0001) %MON dynstat_eta_del2             =   1.3658838720950E-03
(PID.TID 0000.0001) %MON dynstat_uvel_max             =   8.2904497005338E-03
(PID.TID 0000.0001) %MON dynstat_uvel_min             =  -8.4398441609769E-03
(PID.TID 0000.0001) %MON dynstat_uvel_mean            =   4.5168450113097E-12
(PID.TID 0000.0001) %MON dynstat_uvel_sd              =   1.7527309339291E-03
(PID.TID 0000.0001) %MON dynstat_uvel_del2            =   1.1046034007065E-05
(PID.TID 0000.0001) %MON dynstat_vvel_max             =   3.7740992569238E-03
(PID.TID 0000.0001) %MON dynstat_vvel_min             =  -5.4849424854449E-03
(PID.TID 0000.0001) %MON dynstat_vvel_mean            =   2.9380367541047E-12
(PID.TID 0000.0001) %MON dynstat_vvel_sd              =   5.1662748399404E-04
(PID.TID 0000.0001) %MON dynstat_vvel_del2            =   1.0210503906649E-05
(PID.TID 0000.0001) %MON dynstat_wvel_max             =   5.9209866120912E-04
(PID.TID 0000.0001) %MON dynstat_wvel_min             =  -6.4158995912327E-04
(PID.TID 0000.0001) %MON dynstat_wvel_mean            =   2.9808492866341E-12
(PID.TID 0000.0001) %MON dynstat_wvel_sd              =   3.9106402618797E-05
(PID.TID 0000.0001) %MON dynstat_wvel_del2            =   1.2269018412585E-06
(PID.TID 0000.0001) %MON dynstat_theta_max            =  -2.1009059819591E+00
(PID.TID 0000.0001) %MON dynstat_theta_min            =  -2.2513967773579E+00
(PID.TID 0000.0001) %MON dynstat_theta_mean           =  -2.1262296319818E+00
(PID.TID 0000.0001) %MON dynstat_theta_sd             =   2.7253289062717E-02
(PID.TID 0000.0001) %MON dynstat_theta_del2           =   3.5941611867564E-05
(PID.TID 0000.0001) %MON dynstat_salt_max             =   3.4499952755667E+01
(PID.TID 0000.0001) %MON dynstat_salt_min             =   3.4455170804481E+01
(PID.TID 0000.0001) %MON dynstat_salt_mean            =   3.4490461296519E+01
(PID.TID 0000.0001) %MON dynstat_salt_sd              =   1.0390064718560E-02
(PID.TID 0000.0001) %MON dynstat_salt_del2            =   2.4507238200059E-06
(PID.TID 0000.0001) %MON trAdv_CFL_u_max              =   3.9978620036087E-03
(PID.TID 0000.0001) %MON trAdv_CFL_v_max              =   5.2106953611727E-03
(PID.TID 0000.0001) %MON trAdv_CFL_w_max              =   4.6661087936238E-03
(PID.TID 0000.0001) %MON advcfl_uvel_max              =   2.9271169381691E-03
(PID.TID 0000.0001) %MON advcfl_vvel_max              =   5.2106953611727E-03
(PID.TID 0000.0001) %MON advcfl_wvel_max              =   4.6661087936238E-03
(PID.TID 0000.0001) %MON advcfl_W_hf_max              =   6.4562193483986E-03
(PID.TID 0000.0001) %MON pe_b_mean                    =   9.0547714831861E-05
(PID.TID 0000.0001) %MON ke_max                       =   2.7109753887401E-05
(PID.TID 0000.0001) %MON ke_mean                      =   1.5913597116630E-06
(PID.TID 0000.0001) %MON ke_vol                       =   1.8654725220387E+09
(PID.TID 0000.0001) %MON vort_r_min                   =  -1.1988197805187E-04
(PID.TID 0000.0001) %MON vort_r_max                   =   9.9556020361963E-05
(PID.TID 0000.0001) %MON vort_a_mean                  =   1.0000782634673E-04
(PID.TID 0000.0001) %MON vort_a_sd                    =   1.6465891722005E-05
(PID.TID 0000.0001) %MON vort_p_mean                  =   1.1991916022492E-04
(PID.TID 0000.0001) %MON vort_p_sd                    =   6.9568031452590E-05
(PID.TID 0000.0001) %MON surfExpan_theta_mean         =  -1.3795819868538E-13
(PID.TID 0000.0001) %MON surfExpan_salt_mean          =  -5.7939387400718E-14
(PID.TID 0000.0001) // =======================================================
(PID.TID 0000.0001) // End MONITOR dynamic field statistics
(PID.TID 0000.0001) // =======================================================
(PID.TID 0000.0001) // =======================================================
(PID.TID 0000.0001) // Begin MONITOR dynamic field statistics
(PID.TID 0000.0001) // =======================================================
(PID.TID 0000.0001) %MON time_tsnumber                =                285120
(PID.TID 0000.0001) %MON time_secondsf                =   2.2809600000000E+07
(PID.TID 0000.0001) %MON dynstat_eta_max              =   2.1158837430493E-01
(PID.TID 0000.0001) %MON dynstat_eta_min              =  -1.3442090670546E-01
(PID.TID 0000.0001) %MON dynstat_eta_mean             =   1.7976297915107E-16
(PID.TID 0000.0001) %MON dynstat_eta_sd               =   6.2719364590584E-02
(PID.TID 0000.0001) %MON dynstat_eta_del2             =   1.3658212472371E-03
(PID.TID 0000.0001) %MON dynstat_uvel_max             =   1.1494769151852E-02
(PID.TID 0000.0001) %MON dynstat_uvel_min             =  -9.5717740227219E-03
(PID.TID 0000.0001) %MON dynstat_uvel_mean            =   2.8390668222139E-11
(PID.TID 0000.0001) %MON dynstat_uvel_sd              =   1.7579756244037E-03
(PID.TID 0000.0001) %MON dynstat_uvel_del2            =   1.1651722464231E-05
(PID.TID 0000.0001) %MON dynstat_vvel_max             =   4.2182260585320E-03
(PID.TID 0000.0001) %MON dynstat_vvel_min             =  -5.7534895939657E-03
(PID.TID 0000.0001) %MON dynstat_vvel_mean            =   4.0027991345236E-12
(PID.TID 0000.0001) %MON dynstat_vvel_sd              =   5.4071559260900E-04
(PID.TID 0000.0001) %MON dynstat_vvel_del2            =   1.2082528075329E-05
(PID.TID 0000.0001) %MON dynstat_wvel_max             =   7.7124591498707E-04
(PID.TID 0000.0001) %MON dynstat_wvel_min             =  -8.9842264507221E-04
(PID.TID 0000.0001) %MON dynstat_wvel_mean            =   2.7619619463818E-12
(PID.TID 0000.0001) %MON dynstat_wvel_sd              =   4.4197819845784E-05
(PID.TID 0000.0001) %MON dynstat_wvel_del2            =   1.4134407185620E-06
(PID.TID 0000.0001) %MON dynstat_theta_max            =  -2.1009092384473E+00
(PID.TID 0000.0001) %MON dynstat_theta_min            =  -2.2515941408510E+00
(PID.TID 0000.0001) %MON dynstat_theta_mean           =  -2.1263806050894E+00
(PID.TID 0000.0001) %MON dynstat_theta_sd             =   2.7375920221782E-02
(PID.TID 0000.0001) %MON dynstat_theta_del2           =   3.5750303343409E-05
(PID.TID 0000.0001) %MON dynstat_salt_max             =   3.4499952286039E+01
(PID.TID 0000.0001) %MON dynstat_salt_min             =   3.4454394500054E+01
(PID.TID 0000.0001) %MON dynstat_salt_mean            =   3.4490413666717E+01
(PID.TID 0000.0001) %MON dynstat_salt_sd              =   1.0423499724043E-02
(PID.TID 0000.0001) %MON dynstat_salt_del2            =   2.4055484323530E-06
(PID.TID 0000.0001) %MON trAdv_CFL_u_max              =   4.5943362831611E-03
(PID.TID 0000.0001) %MON trAdv_CFL_v_max              =   5.4658151142674E-03
(PID.TID 0000.0001) %MON trAdv_CFL_w_max              =   6.5367391005006E-03
(PID.TID 0000.0001) %MON advcfl_uvel_max              =   3.9866297105699E-03
(PID.TID 0000.0001) %MON advcfl_vvel_max              =   5.4658151142674E-03
(PID.TID 0000.0001) %MON advcfl_wvel_max              =   6.5339828732525E-03
(PID.TID 0000.0001) %MON advcfl_W_hf_max              =   6.5339828732525E-03
(PID.TID 0000.0001) %MON pe_b_mean                    =   9.0539175019008E-05
(PID.TID 0000.0001) %MON ke_max                       =   3.5863202590095E-05
(PID.TID 0000.0001) %MON ke_mean                      =   1.6115698526658E-06
(PID.TID 0000.0001) %MON ke_vol                       =   1.8654725220387E+09
(PID.TID 0000.0001) %MON vort_r_min                   =  -1.1387740483739E-04
(PID.TID 0000.0001) %MON vort_r_max                   =   1.3650038367824E-04
(PID.TID 0000.0001) %MON vort_a_mean                  =   1.0000782634673E-04
(PID.TID 0000.0001) %MON vort_a_sd                    =   1.6585189911086E-05
(PID.TID 0000.0001) %MON vort_p_mean                  =   1.1991916022492E-04
(PID.TID 0000.0001) %MON vort_p_sd                    =   6.9645412856287E-05
(PID.TID 0000.0001) %MON surfExpan_theta_mean         =  -1.3326864101633E-13
(PID.TID 0000.0001) %MON surfExpan_salt_mean          =  -5.6814202399992E-14
(PID.TID 0000.0001) // =======================================================
(PID.TID 0000.0001) // End MONITOR dynamic field statistics
(PID.TID 0000.0001) // =======================================================
(PID.TID 0000.0001) // =======================================================
(PID.TID 0000.0001) // Begin MONITOR dynamic field statistics
(PID.TID 0000.0001) // =======================================================
(PID.TID 0000.0001) %MON time_tsnumber                =                288360
(PID.TID 0000.0001) %MON time_secondsf                =   2.3068800000000E+07
(PID.TID 0000.0001) %MON dynstat_eta_max              =   2.1158255612659E-01
(PID.TID 0000.0001) %MON dynstat_eta_min              =  -1.3441401713991E-01
(PID.TID 0000.0001) %MON dynstat_eta_mean             =   1.9002722333100E-16
(PID.TID 0000.0001) %MON dynstat_eta_sd               =   6.2716569013039E-02
(PID.TID 0000.0001) %MON dynstat_eta_del2             =   1.3657686759302E-03
(PID.TID 0000.0001) %MON dynstat_uvel_max             =   8.1093626997429E-03
(PID.TID 0000.0001) %MON dynstat_uvel_min             =  -9.3859468394586E-03
(PID.TID 0000.0001) %MON dynstat_uvel_mean            =  -5.4311413360241E-12
(PID.TID 0000.0001) %MON dynstat_uvel_sd              =   1.7677791229966E-03
(PID.TID 0000.0001) %MON dynstat_uvel_del2            =   1.0966424077968E-05
(PID.TID 0000.0001) %MON dynstat_vvel_max             =   3.7005742759612E-03
(PID.TID 0000.0001) %MON dynstat_vvel_min             =  -5.1438318863140E-03
(PID.TID 0000.0001) %MON dynstat_vvel_mean            =   5.9822998565949E-12
(PID.TID 0000.0001) %MON dynstat_vvel_sd              =   5.1259914696912E-04
(PID.TID 0000.0001) %MON dynstat_vvel_del2            =   1.0640063640206E-05
(PID.TID 0000.0001) %MON dynstat_wvel_max             =   5.6969777965052E-04
(PID.TID 0000.0001) %MON dynstat_wvel_min             =  -6.2115638929820E-04
(PID.TID 0000.0001) %MON dynstat_wvel_mean            =   3.2359493505960E-12
(PID.TID 0000.0001) %MON dynstat_wvel_sd              =   3.8613618375151E-05
(PID.TID 0000.0001) %MON dynstat_wvel_del2            =   1.2079546574852E-06
(PID.TID 0000.0001) %MON dynstat_theta_max            =  -2.1009125202791E+00
(PID.TID 0000.0001) %MON dynstat_theta_min            =  -2.2527200758697E+00
(PID.TID 0000.0001) %MON dynstat_theta_mean           =  -2.1265304026736E+00
(PID.TID 0000.0001) %MON dynstat_theta_sd             =   2.7480482614224E-02
(PID.TID 0000.0001) %MON dynstat_theta_del2           =   3.7495381806478E-05
(PID.TID 0000.0001) %MON dynstat_salt_max             =   3.4499951803047E+01
(PID.TID 0000.0001) %MON dynstat_salt_min             =   3.4454935347067E+01
(PID.TID 0000.0001) %MON dynstat_salt_mean            =   3.4490366521089E+01
(PID.TID 0000.0001) %MON dynstat_salt_sd              =   1.0457067280757E-02
(PID.TID 0000.0001) %MON dynstat_salt_del2            =   2.4667158422437E-06
(PID.TID 0000.0001) %MON trAdv_CFL_u_max              =   4.0935908555721E-03
(PID.TID 0000.0001) %MON trAdv_CFL_v_max              =   4.8866402919983E-03
(PID.TID 0000.0001) %MON trAdv_CFL_w_max              =   4.5204471918711E-03
(PID.TID 0000.0001) %MON advcfl_uvel_max              =   3.2552454109952E-03
(PID.TID 0000.0001) %MON advcfl_vvel_max              =   4.8866402919983E-03
(PID.TID 0000.0001) %MON advcfl_wvel_max              =   4.5175010130778E-03
(PID.TID 0000.0001) %MON advcfl_W_hf_max              =   6.2477934954883E-03
(PID.TID 0000.0001) %MON pe_b_mean                    =   9.0530676015122E-05
(PID.TID 0000.0001) %MON ke_max                       =   3.0461211288058E-05
(PID.TID 0000.0001) %MON ke_mean                      =   1.6148908401938E-06
(PID.TID 0000.0001) %MON ke_vol                       =   1.8654725220387E+09
(PID.TID 0000.0001) %MON vort_r_min                   =  -1.2240272056740E-04
(PID.TID 0000.0001) %MON vort_r_max                   =   1.1145811871857E-04
(PID.TID 0000.0001) %MON vort_a_mean                  =   1.0000782634673E-04
(PID.TID 0000.0001) %MON vort_a_sd                    =   1.6841210778336E-05
(PID.TID 0000.0001) %MON vort_p_mean                  =   1.1991916022492E-04
(PID.TID 0000.0001) %MON vort_p_sd                    =   6.9651016974611E-05
(PID.TID 0000.0001) %MON surfExpan_theta_mean         =  -1.6469152085182E-13
(PID.TID 0000.0001) %MON surfExpan_salt_mean          =  -6.6584076608006E-14
(PID.TID 0000.0001) // =======================================================
(PID.TID 0000.0001) // End MONITOR dynamic field statistics
(PID.TID 0000.0001) // =======================================================
(PID.TID 0000.0001) // =======================================================
(PID.TID 0000.0001) // Begin MONITOR dynamic field statistics
(PID.TID 0000.0001) // =======================================================
(PID.TID 0000.0001) %MON time_tsnumber                =                291600
(PID.TID 0000.0001) %MON time_secondsf                =   2.3328000000000E+07
(PID.TID 0000.0001) %MON dynstat_eta_max              =   2.1157634688246E-01
(PID.TID 0000.0001) %MON dynstat_eta_min              =  -1.3440978458166E-01
(PID.TID 0000.0001) %MON dynstat_eta_mean             =   1.8780792729209E-16
(PID.TID 0000.0001) %MON dynstat_eta_sd               =   6.2713627121200E-02
(PID.TID 0000.0001) %MON dynstat_eta_del2             =   1.3657068762681E-03
(PID.TID 0000.0001) %MON dynstat_uvel_max             =   1.1097086792583E-02
(PID.TID 0000.0001) %MON dynstat_uvel_min             =  -1.1952825968350E-02
(PID.TID 0000.0001) %MON dynstat_uvel_mean            =   1.4622898012058E-11
(PID.TID 0000.0001) %MON dynstat_uvel_sd              =   1.7815938841506E-03
(PID.TID 0000.0001) %MON dynstat_uvel_del2            =   1.2015909802917E-05
(PID.TID 0000.0001) %MON dynstat_vvel_max             =   3.5996356422295E-03
(PID.TID 0000.0001) %MON dynstat_vvel_min             =  -6.4147633492995E-03
(PID.TID 0000.0001) %MON dynstat_vvel_mean            =   3.7624959658228E-12
(PID.TID 0000.0001) %MON dynstat_vvel_sd              =   5.0257724487640E-04
(PID.TID 0000.0001) %MON dynstat_vvel_del2            =   1.0319076936539E-05
(PID.TID 0000.0001) %MON dynstat_wvel_max             =   6.4882168234637E-04
(PID.TID 0000.0001) %MON dynstat_wvel_min             =  -6.0609340449996E-04
(PID.TID 0000.0001) %MON dynstat_wvel_mean            =   3.0664926821795E-12
(PID.TID 0000.0001) %MON dynstat_wvel_sd              =   4.2790576614487E-05
(PID.TID 0000.0001) %MON dynstat_wvel_del2            =   1.3524553977058E-06
(PID.TID 0000.0001) %MON dynstat_theta_max            =  -2.1009151304241E+00
(PID.TID 0000.0001) %MON dynstat_theta_min            =  -2.2527005855432E+00
(PID.TID 0000.0001) %MON dynstat_theta_mean           =  -2.1266786200402E+00
(PID.TID 0000.0001) %MON dynstat_theta_sd             =   2.7585887673517E-02
(PID.TID 0000.0001) %MON dynstat_theta_del2           =   3.5899716838089E-05
(PID.TID 0000.0001) %MON dynstat_salt_max             =   3.4499951302168E+01
(PID.TID 0000.0001) %MON dynstat_salt_min             =   3.4455318921544E+01
(PID.TID 0000.0001) %MON dynstat_salt_mean            =   3.4490320026152E+01
(PID.TID 0000.0001) %MON dynstat_salt_sd              =   1.0490742166732E-02
(PID.TID 0000.0001) %MON dynstat_salt_del2            =   2.4045632541711E-06
(PID.TID 0000.0001) %MON trAdv_CFL_u_max              =   4.0619751585165E-03
(PID.TID 0000.0001) %MON trAdv_CFL_v_max              =   6.0940251818345E-03
(PID.TID 0000.0001) %MON trAdv_CFL_w_max              =   4.7187031443373E-03
(PID.TID 0000.0001) %MON advcfl_uvel_max              =   4.1454935285079E-03
(PID.TID 0000.0001) %MON advcfl_vvel_max              =   6.0940251818345E-03
(PID.TID 0000.0001) %MON advcfl_wvel_max              =   4.7187031443373E-03
(PID.TID 0000.0001) %MON advcfl_W_hf_max              =   6.0940255059719E-03
(PID.TID 0000.0001) %MON pe_b_mean                    =   9.0521780759280E-05
(PID.TID 0000.0001) %MON ke_max                       =   3.7419085823171E-05
(PID.TID 0000.0001) %MON ke_mean                      =   1.6338372389931E-06
(PID.TID 0000.0001) %MON ke_vol                       =   1.8654725220387E+09
(PID.TID 0000.0001) %MON vort_r_min                   =  -1.4193980837416E-04
(PID.TID 0000.0001) %MON vort_r_max                   =   1.4193980837416E-04
(PID.TID 0000.0001) %MON vort_a_mean                  =   1.0000782634673E-04
(PID.TID 0000.0001) %MON vort_a_sd                    =   1.7286395553110E-05
(PID.TID 0000.0001) %MON vort_p_mean                  =   1.1991916022492E-04
(PID.TID 0000.0001) %MON vort_p_sd                    =   7.0232177188027E-05
(PID.TID 0000.0001) %MON surfExpan_theta_mean         =  -1.4221883333547E-13
(PID.TID 0000.0001) %MON surfExpan_salt_mean          =  -5.6390985976451E-14
(PID.TID 0000.0001) // =======================================================
(PID.TID 0000.0001) // End MONITOR dynamic field statistics
(PID.TID 0000.0001) // =======================================================
(PID.TID 0000.0001) // =======================================================
(PID.TID 0000.0001) // Begin MONITOR dynamic field statistics
(PID.TID 0000.0001) // =======================================================
(PID.TID 0000.0001) %MON time_tsnumber                =                294840
(PID.TID 0000.0001) %MON time_secondsf                =   2.3587200000000E+07
(PID.TID 0000.0001) %MON dynstat_eta_max              =   2.1157044755444E-01
(PID.TID 0000.0001) %MON dynstat_eta_min              =  -1.3440521239794E-01
(PID.TID 0000.0001) %MON dynstat_eta_mean             =   1.9723993545743E-16
(PID.TID 0000.0001) %MON dynstat_eta_sd               =   6.2710698549362E-02
(PID.TID 0000.0001) %MON dynstat_eta_del2             =   1.3656421922483E-03
(PID.TID 0000.0001) %MON dynstat_uvel_max             =   9.3365780123354E-03
(PID.TID 0000.0001) %MON dynstat_uvel_min             =  -9.4662921894566E-03
(PID.TID 0000.0001) %MON dynstat_uvel_mean            =  -1.3900997662720E-12
(PID.TID 0000.0001) %MON dynstat_uvel_sd              =   1.7639867661625E-03
(PID.TID 0000.0001) %MON dynstat_uvel_del2            =   1.2020912822817E-05
(PID.TID 0000.0001) %MON dynstat_vvel_max             =   3.7419635745445E-03
(PID.TID 0000.0001) %MON dynstat_vvel_min             =  -5.7984790186076E-03
(PID.TID 0000.0001) %MON dynstat_vvel_mean            =   4.8987792933723E-12
(PID.TID 0000.0001) %MON dynstat_vvel_sd              =   5.0053770177565E-04
(PID.TID 0000.0001) %MON dynstat_vvel_del2            =   1.0658271985360E-05
(PID.TID 0000.0001) %MON dynstat_wvel_max             =   5.8913316766654E-04
(PID.TID 0000.0001) %MON dynstat_wvel_min             =  -1.0357662431436E-03
(PID.TID 0000.0001) %MON dynstat_wvel_mean            =   3.2619755230810E-12
(PID.TID 0000.0001) %MON dynstat_wvel_sd              =   4.6260406785125E-05
(PID.TID 0000.0001) %MON dynstat_wvel_del2            =   1.5536259461539E-06
(PID.TID 0000.0001) %MON dynstat_theta_max            =  -2.1009169570629E+00
(PID.TID 0000.0001) %MON dynstat_theta_min            =  -2.2521911327547E+00
(PID.TID 0000.0001) %MON dynstat_theta_mean           =  -2.1268266827965E+00
(PID.TID 0000.0001) %MON dynstat_theta_sd             =   2.7698205838108E-02
(PID.TID 0000.0001) %MON dynstat_theta_del2           =   3.5861018168033E-05
(PID.TID 0000.0001) %MON dynstat_salt_max             =   3.4499950972872E+01
(PID.TID 0000.0001) %MON dynstat_salt_min             =   3.4455093424749E+01
(PID.TID 0000.0001) %MON dynstat_salt_mean            =   3.4490273594797E+01
(PID.TID 0000.0001) %MON dynstat_salt_sd              =   1.0523963977695E-02
(PID.TID 0000.0001) %MON dynstat_salt_del2            =   2.4790639020587E-06
(PID.TID 0000.0001) %MON trAdv_CFL_u_max              =   4.1308640761564E-03
(PID.TID 0000.0001) %MON trAdv_CFL_v_max              =   5.5085550676772E-03
(PID.TID 0000.0001) %MON trAdv_CFL_w_max              =   7.5328454046807E-03
(PID.TID 0000.0001) %MON advcfl_uvel_max              =   3.2831108822523E-03
(PID.TID 0000.0001) %MON advcfl_vvel_max              =   5.5085550676772E-03
(PID.TID 0000.0001) %MON advcfl_wvel_max              =   7.5328454046807E-03
(PID.TID 0000.0001) %MON advcfl_W_hf_max              =   7.5328454046807E-03
(PID.TID 0000.0001) %MON pe_b_mean                    =   9.0513012119690E-05
(PID.TID 0000.0001) %MON ke_max                       =   3.3405631631672E-05
(PID.TID 0000.0001) %MON ke_mean                      =   1.6030094706002E-06
(PID.TID 0000.0001) %MON ke_vol                       =   1.8654725220387E+09
(PID.TID 0000.0001) %MON vort_r_min                   =  -1.2564833354594E-04
(PID.TID 0000.0001) %MON vort_r_max                   =   1.1087186389648E-04
(PID.TID 0000.0001) %MON vort_a_mean                  =   1.0000782634673E-04
(PID.TID 0000.0001) %MON vort_a_sd                    =   1.7001591354860E-05
(PID.TID 0000.0001) %MON vort_p_mean                  =   1.1991916022492E-04
(PID.TID 0000.0001) %MON vort_p_sd                    =   7.0005432943469E-05
(PID.TID 0000.0001) %MON surfExpan_theta_mean         =  -1.3705562678401E-13
(PID.TID 0000.0001) %MON surfExpan_salt_mean          =  -5.8486700078617E-14
(PID.TID 0000.0001) // =======================================================
(PID.TID 0000.0001) // End MONITOR dynamic field statistics
(PID.TID 0000.0001) // =======================================================
(PID.TID 0000.0001) %CHECKPOINT    295920 0000295920
(PID.TID 0000.0001) // =======================================================
(PID.TID 0000.0001) // Begin MONITOR dynamic field statistics
(PID.TID 0000.0001) // =======================================================
(PID.TID 0000.0001) %MON time_tsnumber                =                298080
(PID.TID 0000.0001) %MON time_secondsf                =   2.3846400000000E+07
(PID.TID 0000.0001) %MON dynstat_eta_max              =   2.1156438959605E-01
(PID.TID 0000.0001) %MON dynstat_eta_min              =  -1.3439661701204E-01
(PID.TID 0000.0001) %MON dynstat_eta_mean             =   2.1499430376865E-16
(PID.TID 0000.0001) %MON dynstat_eta_sd               =   6.2707849557804E-02
(PID.TID 0000.0001) %MON dynstat_eta_del2             =   1.3655768370441E-03
(PID.TID 0000.0001) %MON dynstat_uvel_max             =   1.0039604686866E-02
(PID.TID 0000.0001) %MON dynstat_uvel_min             =  -9.4555157536547E-03
(PID.TID 0000.0001) %MON dynstat_uvel_mean            =  -2.5601741581692E-12
(PID.TID 0000.0001) %MON dynstat_uvel_sd              =   1.7315774284086E-03
(PID.TID 0000.0001) %MON dynstat_uvel_del2            =   1.2797272641156E-05
(PID.TID 0000.0001) %MON dynstat_vvel_max             =   4.0034097142678E-03
(PID.TID 0000.0001) %MON dynstat_vvel_min             =  -5.8233301435686E-03
(PID.TID 0000.0001) %MON dynstat_vvel_mean            =   4.2683458551665E-12
(PID.TID 0000.0001) %MON dynstat_vvel_sd              =   4.9370172542460E-04
(PID.TID 0000.0001) %MON dynstat_vvel_del2            =   1.0611806445522E-05
(PID.TID 0000.0001) %MON dynstat_wvel_max             =   7.9243593620027E-04
(PID.TID 0000.0001) %MON dynstat_wvel_min             =  -8.3883425751549E-04
(PID.TID 0000.0001) %MON dynstat_wvel_mean            =   2.9288079930971E-12
(PID.TID 0000.0001) %MON dynstat_wvel_sd              =   4.3641210364021E-05
(PID.TID 0000.0001) %MON dynstat_wvel_del2            =   1.4772266549971E-06
(PID.TID 0000.0001) %MON dynstat_theta_max            =  -2.1009192728523E+00
(PID.TID 0000.0001) %MON dynstat_theta_min            =  -2.2519516308912E+00
(PID.TID 0000.0001) %MON dynstat_theta_mean           =  -2.1269729284524E+00
(PID.TID 0000.0001) %MON dynstat_theta_sd             =   2.7809308678787E-02
(PID.TID 0000.0001) %MON dynstat_theta_del2           =   3.8314289693570E-05
(PID.TID 0000.0001) %MON dynstat_salt_max             =   3.4499950497188E+01
(PID.TID 0000.0001) %MON dynstat_salt_min             =   3.4454852354836E+01
(PID.TID 0000.0001) %MON dynstat_salt_mean            =   3.4490227911889E+01
(PID.TID 0000.0001) %MON dynstat_salt_sd              =   1.0556143527476E-02
(PID.TID 0000.0001) %MON dynstat_salt_del2            =   2.6491430334495E-06
(PID.TID 0000.0001) %MON trAdv_CFL_u_max              =   4.6732233302991E-03
(PID.TID 0000.0001) %MON trAdv_CFL_v_max              =   5.5321636363902E-03
(PID.TID 0000.0001) %MON trAdv_CFL_w_max              =   6.1006127819308E-03
(PID.TID 0000.0001) %MON advcfl_uvel_max              =   3.4819478145491E-03
(PID.TID 0000.0001) %MON advcfl_vvel_max              =   5.5321636363902E-03
(PID.TID 0000.0001) %MON advcfl_wvel_max              =   6.1006127819308E-03
(PID.TID 0000.0001) %MON advcfl_W_hf_max              =   6.8042467246762E-03
(PID.TID 0000.0001) %MON pe_b_mean                    =   9.0504498122804E-05
(PID.TID 0000.0001) %MON ke_max                       =   3.3395829118047E-05
(PID.TID 0000.0001) %MON ke_mean                      =   1.5456866193428E-06
(PID.TID 0000.0001) %MON ke_vol                       =   1.8654725220387E+09
(PID.TID 0000.0001) %MON vort_r_min                   =  -1.3390381055178E-04
(PID.TID 0000.0001) %MON vort_r_max                   =   1.1982372487496E-04
(PID.TID 0000.0001) %MON vort_a_mean                  =   1.0000782634673E-04
(PID.TID 0000.0001) %MON vort_a_sd                    =   1.6593220407869E-05
(PID.TID 0000.0001) %MON vort_p_mean                  =   1.1991916022492E-04
(PID.TID 0000.0001) %MON vort_p_sd                    =   7.0152500564508E-05
(PID.TID 0000.0001) %MON surfExpan_theta_mean         =  -1.2455789364735E-13
(PID.TID 0000.0001) %MON surfExpan_salt_mean          =  -5.3226078694583E-14
(PID.TID 0000.0001) // =======================================================
(PID.TID 0000.0001) // End MONITOR dynamic field statistics
(PID.TID 0000.0001) // =======================================================
(PID.TID 0000.0001) // =======================================================
(PID.TID 0000.0001) // Begin MONITOR dynamic field statistics
(PID.TID 0000.0001) // =======================================================
(PID.TID 0000.0001) %MON time_tsnumber                =                301320
(PID.TID 0000.0001) %MON time_secondsf                =   2.4105600000000E+07
(PID.TID 0000.0001) %MON dynstat_eta_max              =   2.1155843979567E-01
(PID.TID 0000.0001) %MON dynstat_eta_min              =  -1.3439156887754E-01
(PID.TID 0000.0001) %MON dynstat_eta_mean             =   2.0805900364708E-16
(PID.TID 0000.0001) %MON dynstat_eta_sd               =   6.2705091298583E-02
(PID.TID 0000.0001) %MON dynstat_eta_del2             =   1.3655218188958E-03
(PID.TID 0000.0001) %MON dynstat_uvel_max             =   8.5069819705680E-03
(PID.TID 0000.0001) %MON dynstat_uvel_min             =  -1.1072677937067E-02
(PID.TID 0000.0001) %MON dynstat_uvel_mean            =   7.0684639019557E-12
(PID.TID 0000.0001) %MON dynstat_uvel_sd              =   1.6850327129941E-03
(PID.TID 0000.0001) %MON dynstat_uvel_del2            =   1.1867157541989E-05
(PID.TID 0000.0001) %MON dynstat_vvel_max             =   3.8626312257316E-03
(PID.TID 0000.0001) %MON dynstat_vvel_min             =  -6.2206116624292E-03
(PID.TID 0000.0001) %MON dynstat_vvel_mean            =   5.4441398281621E-12
(PID.TID 0000.0001) %MON dynstat_vvel_sd              =   4.9670743866178E-04
(PID.TID 0000.0001) %MON dynstat_vvel_del2            =   1.0630623798964E-05
(PID.TID 0000.0001) %MON dynstat_wvel_max             =   6.5424039747388E-04
(PID.TID 0000.0001) %MON dynstat_wvel_min             =  -6.3630056558472E-04
(PID.TID 0000.0001) %MON dynstat_wvel_mean            =   2.8960221271435E-12
(PID.TID 0000.0001) %MON dynstat_wvel_sd              =   3.9965990015717E-05
(PID.TID 0000.0001) %MON dynstat_wvel_del2            =   1.1947896250660E-06
(PID.TID 0000.0001) %MON dynstat_theta_max            =  -2.1009227623715E+00
(PID.TID 0000.0001) %MON dynstat_theta_min            =  -2.2519535739196E+00
(PID.TID 0000.0001) %MON dynstat_theta_mean           =  -2.1271171947614E+00
(PID.TID 0000.0001) %MON dynstat_theta_sd             =   2.7915956608829E-02
(PID.TID 0000.0001) %MON dynstat_theta_del2           =   3.7728557976420E-05
(PID.TID 0000.0001) %MON dynstat_salt_max             =   3.4499949737267E+01
(PID.TID 0000.0001) %MON dynstat_salt_min             =   3.4454504225553E+01
(PID.TID 0000.0001) %MON dynstat_salt_mean            =   3.4490183044467E+01
(PID.TID 0000.0001) %MON dynstat_salt_sd              =   1.0587233804773E-02
(PID.TID 0000.0001) %MON dynstat_salt_del2            =   2.6750596789882E-06
(PID.TID 0000.0001) %MON trAdv_CFL_u_max              =   4.1947368740737E-03
(PID.TID 0000.0001) %MON trAdv_CFL_v_max              =   5.9095810793077E-03
(PID.TID 0000.0001) %MON trAdv_CFL_w_max              =   4.7581119816282E-03
(PID.TID 0000.0001) %MON advcfl_uvel_max              =   3.8402395260258E-03
(PID.TID 0000.0001) %MON advcfl_vvel_max              =   5.9095810793077E-03
(PID.TID 0000.0001) %MON advcfl_wvel_max              =   4.7581119816282E-03
(PID.TID 0000.0001) %MON advcfl_W_hf_max              =   6.5706228699110E-03
(PID.TID 0000.0001) %MON pe_b_mean                    =   9.0496247761194E-05
(PID.TID 0000.0001) %MON ke_max                       =   3.4891334172413E-05
(PID.TID 0000.0001) %MON ke_mean                      =   1.4708183497155E-06
(PID.TID 0000.0001) %MON ke_vol                       =   1.8654725220387E+09
(PID.TID 0000.0001) %MON vort_r_min                   =  -1.3642631457413E-04
(PID.TID 0000.0001) %MON vort_r_max                   =   1.2668834605093E-04
(PID.TID 0000.0001) %MON vort_a_mean                  =   1.0000782634673E-04
(PID.TID 0000.0001) %MON vort_a_sd                    =   1.6286063596190E-05
(PID.TID 0000.0001) %MON vort_p_mean                  =   1.1991916022492E-04
(PID.TID 0000.0001) %MON vort_p_sd                    =   7.0592130640205E-05
(PID.TID 0000.0001) %MON surfExpan_theta_mean         =  -1.3279510282342E-13
(PID.TID 0000.0001) %MON surfExpan_salt_mean          =  -5.4927708869827E-14
(PID.TID 0000.0001) // =======================================================
(PID.TID 0000.0001) // End MONITOR dynamic field statistics
(PID.TID 0000.0001) // =======================================================
(PID.TID 0000.0001) // =======================================================
(PID.TID 0000.0001) // Begin MONITOR dynamic field statistics
(PID.TID 0000.0001) // =======================================================
(PID.TID 0000.0001) %MON time_tsnumber                =                304560
(PID.TID 0000.0001) %MON time_secondsf                =   2.4364800000000E+07
(PID.TID 0000.0001) %MON dynstat_eta_max              =   2.1155262169549E-01
(PID.TID 0000.0001) %MON dynstat_eta_min              =  -1.3438546576035E-01
(PID.TID 0000.0001) %MON dynstat_eta_mean             =   1.9502063941853E-16
(PID.TID 0000.0001) %MON dynstat_eta_sd               =   6.2702296758591E-02
(PID.TID 0000.0001) %MON dynstat_eta_del2             =   1.3654731548485E-03
(PID.TID 0000.0001) %MON dynstat_uvel_max             =   9.5663557883682E-03
(PID.TID 0000.0001) %MON dynstat_uvel_min             =  -9.0951794776347E-03
(PID.TID 0000.0001) %MON dynstat_uvel_mean            =  -7.1282222911516E-12
(PID.TID 0000.0001) %MON dynstat_uvel_sd              =   1.6430519268798E-03
(PID.TID 0000.0001) %MON dynstat_uvel_del2            =   1.1776882249842E-05
(PID.TID 0000.0001) %MON dynstat_vvel_max             =   3.9095669984381E-03
(PID.TID 0000.0001) %MON dynstat_vvel_min             =  -5.6732665531197E-03
(PID.TID 0000.0001) %MON dynstat_vvel_mean            =   3.6020299219844E-12
(PID.TID 0000.0001) %MON dynstat_vvel_sd              =   4.7975821741970E-04
(PID.TID 0000.0001) %MON dynstat_vvel_del2            =   1.0260683662465E-05
(PID.TID 0000.0001) %MON dynstat_wvel_max             =   7.5760267414514E-04
(PID.TID 0000.0001) %MON dynstat_wvel_min             =  -7.2742687091366E-04
(PID.TID 0000.0001) %MON dynstat_wvel_mean            =   2.8644560898262E-12
(PID.TID 0000.0001) %MON dynstat_wvel_sd              =   3.8085429418161E-05
(PID.TID 0000.0001) %MON dynstat_wvel_del2            =   1.2079608765699E-06
(PID.TID 0000.0001) %MON dynstat_theta_max            =  -2.1009256659208E+00
(PID.TID 0000.0001) %MON dynstat_theta_min            =  -2.2522391213904E+00
(PID.TID 0000.0001) %MON dynstat_theta_mean           =  -2.1272587887622E+00
(PID.TID 0000.0001) %MON dynstat_theta_sd             =   2.8018458429766E-02
(PID.TID 0000.0001) %MON dynstat_theta_del2           =   3.7914950165511E-05
(PID.TID 0000.0001) %MON dynstat_salt_max             =   3.4499949186297E+01
(PID.TID 0000.0001) %MON dynstat_salt_min             =   3.4454006226886E+01
(PID.TID 0000.0001) %MON dynstat_salt_mean            =   3.4490139277821E+01
(PID.TID 0000.0001) %MON dynstat_salt_sd              =   1.0616819060569E-02
(PID.TID 0000.0001) %MON dynstat_salt_del2            =   2.5678608089827E-06
(PID.TID 0000.0001) %MON trAdv_CFL_u_max              =   4.2989757438337E-03
(PID.TID 0000.0001) %MON trAdv_CFL_v_max              =   5.3896032254637E-03
(PID.TID 0000.0001) %MON trAdv_CFL_w_max              =   5.5098376301465E-03
(PID.TID 0000.0001) %MON advcfl_uvel_max              =   3.3178150603961E-03
(PID.TID 0000.0001) %MON advcfl_vvel_max              =   5.3896032254637E-03
(PID.TID 0000.0001) %MON advcfl_wvel_max              =   5.5098376301465E-03
(PID.TID 0000.0001) %MON advcfl_W_hf_max              =   6.5222275773673E-03
(PID.TID 0000.0001) %MON pe_b_mean                    =   9.0487880131679E-05
(PID.TID 0000.0001) %MON ke_max                       =   2.9683967436203E-05
(PID.TID 0000.0001) %MON ke_mean                      =   1.3964718190147E-06
(PID.TID 0000.0001) %MON ke_vol                       =   1.8654725220387E+09
(PID.TID 0000.0001) %MON vort_r_min                   =  -1.1842077705581E-04
(PID.TID 0000.0001) %MON vort_r_max                   =   1.1360047498687E-04
(PID.TID 0000.0001) %MON vort_a_mean                  =   1.0000782634673E-04
(PID.TID 0000.0001) %MON vort_a_sd                    =   1.5758609098421E-05
(PID.TID 0000.0001) %MON vort_p_mean                  =   1.1991916022492E-04
(PID.TID 0000.0001) %MON vort_p_sd                    =   7.0390433322798E-05
(PID.TID 0000.0001) %MON surfExpan_theta_mean         =  -1.2203738986743E-13
(PID.TID 0000.0001) %MON surfExpan_salt_mean          =  -5.1483180521932E-14
(PID.TID 0000.0001) // =======================================================
(PID.TID 0000.0001) // End MONITOR dynamic field statistics
(PID.TID 0000.0001) // =======================================================
(PID.TID 0000.0001) // =======================================================
(PID.TID 0000.0001) // Begin MONITOR dynamic field statistics
(PID.TID 0000.0001) // =======================================================
(PID.TID 0000.0001) %MON time_tsnumber                =                307800
(PID.TID 0000.0001) %MON time_secondsf                =   2.4624000000000E+07
(PID.TID 0000.0001) %MON dynstat_eta_max              =   2.1154700531232E-01
(PID.TID 0000.0001) %MON dynstat_eta_min              =  -1.3438302172283E-01
(PID.TID 0000.0001) %MON dynstat_eta_mean             =   2.0389782357414E-16
(PID.TID 0000.0001) %MON dynstat_eta_sd               =   6.2699666515393E-02
(PID.TID 0000.0001) %MON dynstat_eta_del2             =   1.3654226091740E-03
(PID.TID 0000.0001) %MON dynstat_uvel_max             =   1.5063617563991E-02
(PID.TID 0000.0001) %MON dynstat_uvel_min             =  -1.1697656090336E-02
(PID.TID 0000.0001) %MON dynstat_uvel_mean            =   2.6893018083559E-11
(PID.TID 0000.0001) %MON dynstat_uvel_sd              =   1.6238829675116E-03
(PID.TID 0000.0001) %MON dynstat_uvel_del2            =   1.2460841124024E-05
(PID.TID 0000.0001) %MON dynstat_vvel_max             =   5.1084141936426E-03
(PID.TID 0000.0001) %MON dynstat_vvel_min             =  -5.7143903471488E-03
(PID.TID 0000.0001) %MON dynstat_vvel_mean            =   3.2639628761618E-12
(PID.TID 0000.0001) %MON dynstat_vvel_sd              =   4.8408833048940E-04
(PID.TID 0000.0001) %MON dynstat_vvel_del2            =   1.0269536537190E-05
(PID.TID 0000.0001) %MON dynstat_wvel_max             =   9.3791553363961E-04
(PID.TID 0000.0001) %MON dynstat_wvel_min             =  -1.0117006488250E-03
(PID.TID 0000.0001) %MON dynstat_wvel_mean            =   2.5967773322266E-12
(PID.TID 0000.0001) %MON dynstat_wvel_sd              =   4.9110064844384E-05
(PID.TID 0000.0001) %MON dynstat_wvel_del2            =   1.5998305828871E-06
(PID.TID 0000.0001) %MON dynstat_theta_max            =  -2.1009265619883E+00
(PID.TID 0000.0001) %MON dynstat_theta_min            =  -2.2521031876186E+00
(PID.TID 0000.0001) %MON dynstat_theta_mean           =  -2.1273962099962E+00
(PID.TID 0000.0001) %MON dynstat_theta_sd             =   2.8127223393133E-02
(PID.TID 0000.0001) %MON dynstat_theta_del2           =   4.0248837021834E-05
(PID.TID 0000.0001) %MON dynstat_salt_max             =   3.4499948832996E+01
(PID.TID 0000.0001) %MON dynstat_salt_min             =   3.4452817548190E+01
(PID.TID 0000.0001) %MON dynstat_salt_mean            =   3.4490097229964E+01
(PID.TID 0000.0001) %MON dynstat_salt_sd              =   1.0644440201475E-02
(PID.TID 0000.0001) %MON dynstat_salt_del2            =   2.6916524471131E-06
(PID.TID 0000.0001) %MON trAdv_CFL_u_max              =   5.2243820242004E-03
(PID.TID 0000.0001) %MON trAdv_CFL_v_max              =   5.4286708297914E-03
(PID.TID 0000.0001) %MON trAdv_CFL_w_max              =   7.3589532958563E-03
(PID.TID 0000.0001) %MON advcfl_uvel_max              =   5.2243820242004E-03
(PID.TID 0000.0001) %MON advcfl_vvel_max              =   5.4286708297914E-03
(PID.TID 0000.0001) %MON advcfl_wvel_max              =   7.3578229005457E-03
(PID.TID 0000.0001) %MON advcfl_W_hf_max              =   7.3578229005457E-03
(PID.TID 0000.0001) %MON pe_b_mean                    =   9.0480002175578E-05
(PID.TID 0000.0001) %MON ke_max                       =   5.6850853266633E-05
(PID.TID 0000.0001) %MON ke_mean                      =   1.3683307477233E-06
(PID.TID 0000.0001) %MON ke_vol                       =   1.8654725220387E+09
(PID.TID 0000.0001) %MON vort_r_min                   =  -1.7888045857239E-04
(PID.TID 0000.0001) %MON vort_r_max                   =   1.7888045857239E-04
(PID.TID 0000.0001) %MON vort_a_mean                  =   1.0000782634673E-04
(PID.TID 0000.0001) %MON vort_a_sd                    =   1.5955595520930E-05
(PID.TID 0000.0001) %MON vort_p_mean                  =   1.1991916022492E-04
(PID.TID 0000.0001) %MON vort_p_sd                    =   7.1359664164658E-05
(PID.TID 0000.0001) %MON surfExpan_theta_mean         =  -1.2699783922314E-13
(PID.TID 0000.0001) %MON surfExpan_salt_mean          =  -5.1344256005840E-14
(PID.TID 0000.0001) // =======================================================
(PID.TID 0000.0001) // End MONITOR dynamic field statistics
(PID.TID 0000.0001) // =======================================================
(PID.TID 0000.0001) // =======================================================
(PID.TID 0000.0001) // Begin MONITOR dynamic field statistics
(PID.TID 0000.0001) // =======================================================
(PID.TID 0000.0001) %MON time_tsnumber                =                311040
(PID.TID 0000.0001) %MON time_secondsf                =   2.4883200000000E+07
(PID.TID 0000.0001) %MON dynstat_eta_max              =   2.1154185781431E-01
(PID.TID 0000.0001) %MON dynstat_eta_min              =  -1.3437573606533E-01
(PID.TID 0000.0001) %MON dynstat_eta_mean             =   1.9446581540880E-16
(PID.TID 0000.0001) %MON dynstat_eta_sd               =   6.2697084551248E-02
(PID.TID 0000.0001) %MON dynstat_eta_del2             =   1.3653695941967E-03
(PID.TID 0000.0001) %MON dynstat_uvel_max             =   9.4199864295144E-03
(PID.TID 0000.0001) %MON dynstat_uvel_min             =  -1.0087224367203E-02
(PID.TID 0000.0001) %MON dynstat_uvel_mean            =   1.1101942252506E-11
(PID.TID 0000.0001) %MON dynstat_uvel_sd              =   1.6208027946958E-03
(PID.TID 0000.0001) %MON dynstat_uvel_del2            =   1.1102511351069E-05
(PID.TID 0000.0001) %MON dynstat_vvel_max             =   4.0847875942447E-03
(PID.TID 0000.0001) %MON dynstat_vvel_min             =  -6.0942185935523E-03
(PID.TID 0000.0001) %MON dynstat_vvel_mean            =   4.2382615695483E-12
(PID.TID 0000.0001) %MON dynstat_vvel_sd              =   4.7707231482627E-04
(PID.TID 0000.0001) %MON dynstat_vvel_del2            =   9.9950447425440E-06
(PID.TID 0000.0001) %MON dynstat_wvel_max             =   6.3723708832867E-04
(PID.TID 0000.0001) %MON dynstat_wvel_min             =  -7.3882039015149E-04
(PID.TID 0000.0001) %MON dynstat_wvel_mean            =   2.7867231003508E-12
(PID.TID 0000.0001) %MON dynstat_wvel_sd              =   3.9846615382050E-05
(PID.TID 0000.0001) %MON dynstat_wvel_del2            =   1.2295772188861E-06
(PID.TID 0000.0001) %MON dynstat_theta_max            =  -2.1009307944565E+00
(PID.TID 0000.0001) %MON dynstat_theta_min            =  -2.2533927613558E+00
(PID.TID 0000.0001) %MON dynstat_theta_mean           =  -2.1275324877270E+00
(PID.TID 0000.0001) %MON dynstat_theta_sd             =   2.8206191343126E-02
(PID.TID 0000.0001) %MON dynstat_theta_del2           =   3.8037136042646E-05
(PID.TID 0000.0001) %MON dynstat_salt_max             =   3.4499948517392E+01
(PID.TID 0000.0001) %MON dynstat_salt_min             =   3.4453977170139E+01
(PID.TID 0000.0001) %MON dynstat_salt_mean            =   3.4490055653062E+01
(PID.TID 0000.0001) %MON dynstat_salt_sd              =   1.0672014772966E-02
(PID.TID 0000.0001) %MON dynstat_salt_del2            =   2.5703251618210E-06
(PID.TID 0000.0001) %MON trAdv_CFL_u_max              =   4.3000735824602E-03
(PID.TID 0000.0001) %MON trAdv_CFL_v_max              =   5.7895076638747E-03
(PID.TID 0000.0001) %MON trAdv_CFL_w_max              =   5.3732392011018E-03
(PID.TID 0000.0001) %MON advcfl_uvel_max              =   3.4984633295569E-03
(PID.TID 0000.0001) %MON advcfl_vvel_max              =   5.7895076638747E-03
(PID.TID 0000.0001) %MON advcfl_wvel_max              =   5.3732392011018E-03
(PID.TID 0000.0001) %MON advcfl_W_hf_max              =   6.8382616340204E-03
(PID.TID 0000.0001) %MON pe_b_mean                    =   9.0472266383767E-05
(PID.TID 0000.0001) %MON ke_max                       =   3.6126830925889E-05
(PID.TID 0000.0001) %MON ke_mean                      =   1.3605268237960E-06
(PID.TID 0000.0001) %MON ke_vol                       =   1.8654725220387E+09
(PID.TID 0000.0001) %MON vort_r_min                   =  -1.3223669787513E-04
(PID.TID 0000.0001) %MON vort_r_max                   =   1.1186233885048E-04
(PID.TID 0000.0001) %MON vort_a_mean                  =   1.0000782634673E-04
(PID.TID 0000.0001) %MON vort_a_sd                    =   1.5811184110730E-05
(PID.TID 0000.0001) %MON vort_p_mean                  =   1.1991916022492E-04
(PID.TID 0000.0001) %MON vort_p_sd                    =   7.1089307170030E-05
(PID.TID 0000.0001) %MON surfExpan_theta_mean         =  -1.3108883662267E-13
(PID.TID 0000.0001) %MON surfExpan_salt_mean          =  -5.4076655536250E-14
(PID.TID 0000.0001) // =======================================================
(PID.TID 0000.0001) // End MONITOR dynamic field statistics
(PID.TID 0000.0001) // =======================================================
(PID.TID 0000.0001) // =======================================================
(PID.TID 0000.0001) // Begin MONITOR dynamic field statistics
(PID.TID 0000.0001) // =======================================================
(PID.TID 0000.0001) %MON time_tsnumber                =                314280
(PID.TID 0000.0001) %MON time_secondsf                =   2.5142400000000E+07
(PID.TID 0000.0001) %MON dynstat_eta_max              =   2.1153639941347E-01
(PID.TID 0000.0001) %MON dynstat_eta_min              =  -1.3436717020252E-01
(PID.TID 0000.0001) %MON dynstat_eta_mean             =   1.9502063941853E-16
(PID.TID 0000.0001) %MON dynstat_eta_sd               =   6.2694491012300E-02
(PID.TID 0000.0001) %MON dynstat_eta_del2             =   1.3653192324272E-03
(PID.TID 0000.0001) %MON dynstat_uvel_max             =   8.8259463299567E-03
(PID.TID 0000.0001) %MON dynstat_uvel_min             =  -9.3657256006713E-03
(PID.TID 0000.0001) %MON dynstat_uvel_mean            =  -1.7940172626429E-11
(PID.TID 0000.0001) %MON dynstat_uvel_sd              =   1.6248939900849E-03
(PID.TID 0000.0001) %MON dynstat_uvel_del2            =   1.3282704190101E-05
(PID.TID 0000.0001) %MON dynstat_vvel_max             =   3.8439089859527E-03
(PID.TID 0000.0001) %MON dynstat_vvel_min             =  -5.6797768649947E-03
(PID.TID 0000.0001) %MON dynstat_vvel_mean            =   4.7910707034143E-12
(PID.TID 0000.0001) %MON dynstat_vvel_sd              =   4.7148216684358E-04
(PID.TID 0000.0001) %MON dynstat_vvel_del2            =   1.0058689317878E-05
(PID.TID 0000.0001) %MON dynstat_wvel_max             =   9.1909726446407E-04
(PID.TID 0000.0001) %MON dynstat_wvel_min             =  -8.1019654938823E-04
(PID.TID 0000.0001) %MON dynstat_wvel_mean            =   2.7691855276527E-12
(PID.TID 0000.0001) %MON dynstat_wvel_sd              =   4.4692291045992E-05
(PID.TID 0000.0001) %MON dynstat_wvel_del2            =   1.5325717565408E-06
(PID.TID 0000.0001) %MON dynstat_theta_max            =  -2.1009383903771E+00
(PID.TID 0000.0001) %MON dynstat_theta_min            =  -2.2539203378999E+00
(PID.TID 0000.0001) %MON dynstat_theta_mean           =  -2.1276651625511E+00
(PID.TID 0000.0001) %MON dynstat_theta_sd             =   2.8293066932345E-02
(PID.TID 0000.0001) %MON dynstat_theta_del2           =   3.8190744348241E-05
(PID.TID 0000.0001) %MON dynstat_salt_max             =   3.4499946953563E+01
(PID.TID 0000.0001) %MON dynstat_salt_min             =   3.4454271685433E+01
(PID.TID 0000.0001) %MON dynstat_salt_mean            =   3.4490015560102E+01
(PID.TID 0000.0001) %MON dynstat_salt_sd              =   1.0698528199512E-02
(PID.TID 0000.0001) %MON dynstat_salt_del2            =   2.5449629428851E-06
(PID.TID 0000.0001) %MON trAdv_CFL_u_max              =   5.3096614163105E-03
(PID.TID 0000.0001) %MON trAdv_CFL_v_max              =   5.3957880217450E-03
(PID.TID 0000.0001) %MON trAdv_CFL_w_max              =   6.6843437415569E-03
(PID.TID 0000.0001) %MON advcfl_uvel_max              =   3.2482322565534E-03
(PID.TID 0000.0001) %MON advcfl_vvel_max              =   5.3957880217450E-03
(PID.TID 0000.0001) %MON advcfl_wvel_max              =   6.6843437415569E-03
(PID.TID 0000.0001) %MON advcfl_W_hf_max              =   6.7127389162434E-03
(PID.TID 0000.0001) %MON pe_b_mean                    =   9.0464537175826E-05
(PID.TID 0000.0001) %MON ke_max                       =   3.5666465905892E-05
(PID.TID 0000.0001) %MON ke_mean                      =   1.3645187478526E-06
(PID.TID 0000.0001) %MON ke_vol                       =   1.8654725220387E+09
(PID.TID 0000.0001) %MON vort_r_min                   =  -1.2706180661925E-04
(PID.TID 0000.0001) %MON vort_r_max                   =   1.0557805433174E-04
(PID.TID 0000.0001) %MON vort_a_mean                  =   1.0000782634673E-04
(PID.TID 0000.0001) %MON vort_a_sd                    =   1.5904943590558E-05
(PID.TID 0000.0001) %MON vort_p_mean                  =   1.1991916022492E-04
(PID.TID 0000.0001) %MON vort_p_sd                    =   7.1832830390375E-05
(PID.TID 0000.0001) %MON surfExpan_theta_mean         =  -1.0717944911731E-13
(PID.TID 0000.0001) %MON surfExpan_salt_mean          =  -4.9073492099818E-14
(PID.TID 0000.0001) // =======================================================
(PID.TID 0000.0001) // End MONITOR dynamic field statistics
(PID.TID 0000.0001) // =======================================================
(PID.TID 0000.0001) // =======================================================
(PID.TID 0000.0001) // Begin MONITOR dynamic field statistics
(PID.TID 0000.0001) // =======================================================
(PID.TID 0000.0001) %MON time_tsnumber                =                317520
(PID.TID 0000.0001) %MON time_secondsf                =   2.5401600000000E+07
(PID.TID 0000.0001) %MON dynstat_eta_max              =   2.1153143073512E-01
(PID.TID 0000.0001) %MON dynstat_eta_min              =  -1.3436374803063E-01
(PID.TID 0000.0001) %MON dynstat_eta_mean             =   2.0583970760817E-16
(PID.TID 0000.0001) %MON dynstat_eta_sd               =   6.2691981269240E-02
(PID.TID 0000.0001) %MON dynstat_eta_del2             =   1.3652791308737E-03
(PID.TID 0000.0001) %MON dynstat_uvel_max             =   9.4455127732975E-03
(PID.TID 0000.0001) %MON dynstat_uvel_min             =  -9.8170405043601E-03
(PID.TID 0000.0001) %MON dynstat_uvel_mean            =   4.9203700134616E-12
(PID.TID 0000.0001) %MON dynstat_uvel_sd              =   1.5994702835108E-03
(PID.TID 0000.0001) %MON dynstat_uvel_del2            =   1.2170648337668E-05
(PID.TID 0000.0001) %MON dynstat_vvel_max             =   3.5755151383554E-03
(PID.TID 0000.0001) %MON dynstat_vvel_min             =  -5.9172638740101E-03
(PID.TID 0000.0001) %MON dynstat_vvel_mean            =   3.1640602276230E-12
(PID.TID 0000.0001) %MON dynstat_vvel_sd              =   4.6420840346278E-04
(PID.TID 0000.0001) %MON dynstat_vvel_del2            =   9.9268850039668E-06
(PID.TID 0000.0001) %MON dynstat_wvel_max             =   6.5481387835390E-04
(PID.TID 0000.0001) %MON dynstat_wvel_min             =  -7.8987097688286E-04
(PID.TID 0000.0001) %MON dynstat_wvel_mean            =   2.7287476835521E-12
(PID.TID 0000.0001) %MON dynstat_wvel_sd              =   4.3539844209262E-05
(PID.TID 0000.0001) %MON dynstat_wvel_del2            =   1.4278091633638E-06
(PID.TID 0000.0001) %MON dynstat_theta_max            =  -2.1009461122990E+00
(PID.TID 0000.0001) %MON dynstat_theta_min            =  -2.2541169566385E+00
(PID.TID 0000.0001) %MON dynstat_theta_mean           =  -2.1277945316038E+00
(PID.TID 0000.0001) %MON dynstat_theta_sd             =   2.8379888798989E-02
(PID.TID 0000.0001) %MON dynstat_theta_del2           =   3.9175749172723E-05
(PID.TID 0000.0001) %MON dynstat_salt_max             =   3.4499945376146E+01
(PID.TID 0000.0001) %MON dynstat_salt_min             =   3.4454186590726E+01
(PID.TID 0000.0001) %MON dynstat_salt_mean            =   3.4489976828726E+01
(PID.TID 0000.0001) %MON dynstat_salt_sd              =   1.0723925285730E-02
(PID.TID 0000.0001) %MON dynstat_salt_del2            =   2.6247092492908E-06
(PID.TID 0000.0001) %MON trAdv_CFL_u_max              =   4.3312670298213E-03
(PID.TID 0000.0001) %MON trAdv_CFL_v_max              =   5.6214006803096E-03
(PID.TID 0000.0001) %MON trAdv_CFL_w_max              =   5.7445161955117E-03
(PID.TID 0000.0001) %MON advcfl_uvel_max              =   3.4047578361540E-03
(PID.TID 0000.0001) %MON advcfl_vvel_max              =   5.6214006803096E-03
(PID.TID 0000.0001) %MON advcfl_wvel_max              =   5.7445161955117E-03
(PID.TID 0000.0001) %MON advcfl_W_hf_max              =   6.4057142826106E-03
(PID.TID 0000.0001) %MON pe_b_mean                    =   9.0457103811934E-05
(PID.TID 0000.0001) %MON ke_max                       =   3.4826856550370E-05
(PID.TID 0000.0001) %MON ke_mean                      =   1.3221960845707E-06
(PID.TID 0000.0001) %MON ke_vol                       =   1.8654725220387E+09
(PID.TID 0000.0001) %MON vort_r_min                   =  -1.2627983713726E-04
(PID.TID 0000.0001) %MON vort_r_max                   =   1.1216546418291E-04
(PID.TID 0000.0001) %MON vort_a_mean                  =   1.0000782634673E-04
(PID.TID 0000.0001) %MON vort_a_sd                    =   1.5636960273461E-05
(PID.TID 0000.0001) %MON vort_p_mean                  =   1.1991916022492E-04
(PID.TID 0000.0001) %MON vort_p_sd                    =   7.2204560007791E-05
(PID.TID 0000.0001) %MON surfExpan_theta_mean         =  -1.0476074835761E-13
(PID.TID 0000.0001) %MON surfExpan_salt_mean          =  -4.5804140628232E-14
(PID.TID 0000.0001) // =======================================================
(PID.TID 0000.0001) // End MONITOR dynamic field statistics
(PID.TID 0000.0001) // =======================================================
(PID.TID 0000.0001) // =======================================================
(PID.TID 0000.0001) // Begin MONITOR dynamic field statistics
(PID.TID 0000.0001) // =======================================================
(PID.TID 0000.0001) %MON time_tsnumber                =                320760
(PID.TID 0000.0001) %MON time_secondsf                =   2.5660800000000E+07
(PID.TID 0000.0001) %MON dynstat_eta_max              =   2.1152645008047E-01
(PID.TID 0000.0001) %MON dynstat_eta_min              =  -1.3435627784915E-01
(PID.TID 0000.0001) %MON dynstat_eta_mean             =   2.2470372393884E-16
(PID.TID 0000.0001) %MON dynstat_eta_sd               =   6.2689540609811E-02
(PID.TID 0000.0001) %MON dynstat_eta_del2             =   1.3652348054227E-03
(PID.TID 0000.0001) %MON dynstat_uvel_max             =   8.8166337480629E-03
(PID.TID 0000.0001) %MON dynstat_uvel_min             =  -9.4714915773419E-03
(PID.TID 0000.0001) %MON dynstat_uvel_mean            =  -1.0069775218410E-11
(PID.TID 0000.0001) %MON dynstat_uvel_sd              =   1.5721661375728E-03
(PID.TID 0000.0001) %MON dynstat_uvel_del2            =   1.2022582060640E-05
(PID.TID 0000.0001) %MON dynstat_vvel_max             =   3.5209481631598E-03
(PID.TID 0000.0001) %MON dynstat_vvel_min             =  -5.1755559406856E-03
(PID.TID 0000.0001) %MON dynstat_vvel_mean            =   3.4473577197437E-12
(PID.TID 0000.0001) %MON dynstat_vvel_sd              =   4.6900252063771E-04
(PID.TID 0000.0001) %MON dynstat_vvel_del2            =   1.0582428390712E-05
(PID.TID 0000.0001) %MON dynstat_wvel_max             =   6.0826296295328E-04
(PID.TID 0000.0001) %MON dynstat_wvel_min             =  -6.5572893050591E-04
(PID.TID 0000.0001) %MON dynstat_wvel_mean            =   2.4710057064931E-12
(PID.TID 0000.0001) %MON dynstat_wvel_sd              =   4.1115129760946E-05
(PID.TID 0000.0001) %MON dynstat_wvel_del2            =   1.3511800591556E-06
(PID.TID 0000.0001) %MON dynstat_theta_max            =  -2.1009531174181E+00
(PID.TID 0000.0001) %MON dynstat_theta_min            =  -2.2542240424698E+00
(PID.TID 0000.0001) %MON dynstat_theta_mean           =  -2.1279214945996E+00
(PID.TID 0000.0001) %MON dynstat_theta_sd             =   2.8463778874776E-02
(PID.TID 0000.0001) %MON dynstat_theta_del2           =   3.5382942903437E-05
(PID.TID 0000.0001) %MON dynstat_salt_max             =   3.4499943889505E+01
(PID.TID 0000.0001) %MON dynstat_salt_min             =   3.4454111522418E+01
(PID.TID 0000.0001) %MON dynstat_salt_mean            =   3.4489939088332E+01
(PID.TID 0000.0001) %MON dynstat_salt_sd              =   1.0747879604839E-02
(PID.TID 0000.0001) %MON dynstat_salt_del2            =   2.4467468940192E-06
(PID.TID 0000.0001) %MON trAdv_CFL_u_max              =   4.4693119069465E-03
(PID.TID 0000.0001) %MON trAdv_CFL_v_max              =   4.9167781436513E-03
(PID.TID 0000.0001) %MON trAdv_CFL_w_max              =   4.7689376764066E-03
(PID.TID 0000.0001) %MON advcfl_uvel_max              =   3.2849141402339E-03
(PID.TID 0000.0001) %MON advcfl_vvel_max              =   4.9167781436513E-03
(PID.TID 0000.0001) %MON advcfl_wvel_max              =   4.7689376764066E-03
(PID.TID 0000.0001) %MON advcfl_W_hf_max              =   6.1636122186703E-03
(PID.TID 0000.0001) %MON pe_b_mean                    =   9.0449883833552E-05
(PID.TID 0000.0001) %MON ke_max                       =   3.3552507266486E-05
(PID.TID 0000.0001) %MON ke_mean                      =   1.2827012901323E-06
(PID.TID 0000.0001) %MON ke_vol                       =   1.8654725220387E+09
(PID.TID 0000.0001) %MON vort_r_min                   =  -1.1883530008478E-04
(PID.TID 0000.0001) %MON vort_r_max                   =   1.1247396248094E-04
(PID.TID 0000.0001) %MON vort_a_mean                  =   1.0000782634673E-04
(PID.TID 0000.0001) %MON vort_a_sd                    =   1.5390410454509E-05
(PID.TID 0000.0001) %MON vort_p_mean                  =   1.1991916022492E-04
(PID.TID 0000.0001) %MON vort_p_sd                    =   7.2143031642079E-05
(PID.TID 0000.0001) %MON surfExpan_theta_mean         =  -1.0371755038955E-13
(PID.TID 0000.0001) %MON surfExpan_salt_mean          =  -4.3665436933926E-14
(PID.TID 0000.0001) // =======================================================
(PID.TID 0000.0001) // End MONITOR dynamic field statistics
(PID.TID 0000.0001) // =======================================================
(PID.TID 0000.0001) // =======================================================
(PID.TID 0000.0001) // Begin MONITOR dynamic field statistics
(PID.TID 0000.0001) // =======================================================
(PID.TID 0000.0001) %MON time_tsnumber                =                324000
(PID.TID 0000.0001) %MON time_secondsf                =   2.5920000000000E+07
(PID.TID 0000.0001) %MON dynstat_eta_max              =   2.1152161899794E-01
(PID.TID 0000.0001) %MON dynstat_eta_min              =  -1.3435106875072E-01
(PID.TID 0000.0001) %MON dynstat_eta_mean             =   2.3136161205555E-16
(PID.TID 0000.0001) %MON dynstat_eta_sd               =   6.2687263339808E-02
(PID.TID 0000.0001) %MON dynstat_eta_del2             =   1.3651901593021E-03
(PID.TID 0000.0001) %MON dynstat_uvel_max             =   8.9329503526962E-03
(PID.TID 0000.0001) %MON dynstat_uvel_min             =  -9.5482826893630E-03
(PID.TID 0000.0001) %MON dynstat_uvel_mean            =  -1.1202289789341E-11
(PID.TID 0000.0001) %MON dynstat_uvel_sd              =   1.5655093622661E-03
(PID.TID 0000.0001) %MON dynstat_uvel_del2            =   1.0878830713074E-05
(PID.TID 0000.0001) %MON dynstat_vvel_max             =   3.6313134606081E-03
(PID.TID 0000.0001) %MON dynstat_vvel_min             =  -5.2765703791924E-03
(PID.TID 0000.0001) %MON dynstat_vvel_mean            =   4.0365356134671E-12
(PID.TID 0000.0001) %MON dynstat_vvel_sd              =   4.5144288232268E-04
(PID.TID 0000.0001) %MON dynstat_vvel_del2            =   9.2935900253087E-06
(PID.TID 0000.0001) %MON dynstat_wvel_max             =   4.8917903449024E-04
(PID.TID 0000.0001) %MON dynstat_wvel_min             =  -5.1938333487567E-04
(PID.TID 0000.0001) %MON dynstat_wvel_mean            =   2.6167005285449E-12
(PID.TID 0000.0001) %MON dynstat_wvel_sd              =   3.7470543135102E-05
(PID.TID 0000.0001) %MON dynstat_wvel_del2            =   1.1230302028017E-06
(PID.TID 0000.0001) %MON dynstat_theta_max            =  -2.1009575356153E+00
(PID.TID 0000.0001) %MON dynstat_theta_min            =  -2.2543744394713E+00
(PID.TID 0000.0001) %MON dynstat_theta_mean           =  -2.1280473937600E+00
(PID.TID 0000.0001) %MON dynstat_theta_sd             =   2.8551484415607E-02
(PID.TID 0000.0001) %MON dynstat_theta_del2           =   3.4974987946973E-05
(PID.TID 0000.0001) %MON dynstat_salt_max             =   3.4499943029935E+01
(PID.TID 0000.0001) %MON dynstat_salt_min             =   3.4454182061621E+01
(PID.TID 0000.0001) %MON dynstat_salt_mean            =   3.4489901786074E+01
(PID.TID 0000.0001) %MON dynstat_salt_sd              =   1.0771155191987E-02
(PID.TID 0000.0001) %MON dynstat_salt_del2            =   2.4399523872890E-06
(PID.TID 0000.0001) %MON trAdv_CFL_u_max              =   4.5229302947166E-03
(PID.TID 0000.0001) %MON trAdv_CFL_v_max              =   5.0127418602328E-03
(PID.TID 0000.0001) %MON trAdv_CFL_w_max              =   4.5384477020302E-03
(PID.TID 0000.0001) %MON advcfl_uvel_max              =   3.3115469263862E-03
(PID.TID 0000.0001) %MON advcfl_vvel_max              =   5.0127418602328E-03
(PID.TID 0000.0001) %MON advcfl_wvel_max              =   3.7773333445503E-03
(PID.TID 0000.0001) %MON advcfl_W_hf_max              =   6.3551236007370E-03
(PID.TID 0000.0001) %MON pe_b_mean                    =   9.0443131004817E-05
(PID.TID 0000.0001) %MON ke_max                       =   3.4764085903750E-05
(PID.TID 0000.0001) %MON ke_mean                      =   1.2654666568015E-06
(PID.TID 0000.0001) %MON ke_vol                       =   1.8654725220387E+09
(PID.TID 0000.0001) %MON vort_r_min                   =  -1.2358513546011E-04
(PID.TID 0000.0001) %MON vort_r_max                   =   1.1338585693619E-04
(PID.TID 0000.0001) %MON vort_a_mean                  =   1.0000782634673E-04
(PID.TID 0000.0001) %MON vort_a_sd                    =   1.5292567592051E-05
(PID.TID 0000.0001) %MON vort_p_mean                  =   1.1991916022492E-04
(PID.TID 0000.0001) %MON vort_p_sd                    =   7.1976414716564E-05
(PID.TID 0000.0001) %MON surfExpan_theta_mean         =  -1.0419643489572E-13
(PID.TID 0000.0001) %MON surfExpan_salt_mean          =  -4.4839106700597E-14
(PID.TID 0000.0001) // =======================================================
(PID.TID 0000.0001) // End MONITOR dynamic field statistics
(PID.TID 0000.0001) // =======================================================
(PID.TID 0000.0001) // =======================================================
(PID.TID 0000.0001) // Begin MONITOR dynamic field statistics
(PID.TID 0000.0001) // =======================================================
(PID.TID 0000.0001) %MON time_tsnumber                =                327240
(PID.TID 0000.0001) %MON time_secondsf                =   2.6179200000000E+07
(PID.TID 0000.0001) %MON dynstat_eta_max              =   2.1151685895838E-01
(PID.TID 0000.0001) %MON dynstat_eta_min              =  -1.3434696141178E-01
(PID.TID 0000.0001) %MON dynstat_eta_mean             =   2.2914231601665E-16
(PID.TID 0000.0001) %MON dynstat_eta_sd               =   6.2684781325907E-02
(PID.TID 0000.0001) %MON dynstat_eta_del2             =   1.3651460606221E-03
(PID.TID 0000.0001) %MON dynstat_uvel_max             =   9.1337587846371E-03
(PID.TID 0000.0001) %MON dynstat_uvel_min             =  -9.9675371259312E-03
(PID.TID 0000.0001) %MON dynstat_uvel_mean            =   1.0205790089514E-12
(PID.TID 0000.0001) %MON dynstat_uvel_sd              =   1.5704397920093E-03
(PID.TID 0000.0001) %MON dynstat_uvel_del2            =   1.1727802544089E-05
(PID.TID 0000.0001) %MON dynstat_vvel_max             =   3.3838720140935E-03
(PID.TID 0000.0001) %MON dynstat_vvel_min             =  -6.4050071584934E-03
(PID.TID 0000.0001) %MON dynstat_vvel_mean            =   3.7933261731653E-12
(PID.TID 0000.0001) %MON dynstat_vvel_sd              =   4.5931121305988E-04
(PID.TID 0000.0001) %MON dynstat_vvel_del2            =   9.5838019551591E-06
(PID.TID 0000.0001) %MON dynstat_wvel_max             =   7.1160144227939E-04
(PID.TID 0000.0001) %MON dynstat_wvel_min             =  -1.3569461599789E-03
(PID.TID 0000.0001) %MON dynstat_wvel_mean            =   2.6037759464451E-12
(PID.TID 0000.0001) %MON dynstat_wvel_sd              =   4.8016583853465E-05
(PID.TID 0000.0001) %MON dynstat_wvel_del2            =   1.7019711095657E-06
(PID.TID 0000.0001) %MON dynstat_theta_max            =  -2.1009628148241E+00
(PID.TID 0000.0001) %MON dynstat_theta_min            =  -2.2544591419698E+00
(PID.TID 0000.0001) %MON dynstat_theta_mean           =  -2.1281741025451E+00
(PID.TID 0000.0001) %MON dynstat_theta_sd             =   2.8642848101575E-02
(PID.TID 0000.0001) %MON dynstat_theta_del2           =   3.5602471635096E-05
(PID.TID 0000.0001) %MON dynstat_salt_max             =   3.4499942410204E+01
(PID.TID 0000.0001) %MON dynstat_salt_min             =   3.4454129968517E+01
(PID.TID 0000.0001) %MON dynstat_salt_mean            =   3.4489864150366E+01
(PID.TID 0000.0001) %MON dynstat_salt_sd              =   1.0794614846754E-02
(PID.TID 0000.0001) %MON dynstat_salt_del2            =   2.4716826116709E-06
(PID.TID 0000.0001) %MON trAdv_CFL_u_max              =   4.6258895533715E-03
(PID.TID 0000.0001) %MON trAdv_CFL_v_max              =   6.0847568005687E-03
(PID.TID 0000.0001) %MON trAdv_CFL_w_max              =   9.8686993453010E-03
(PID.TID 0000.0001) %MON advcfl_uvel_max              =   3.4569532560855E-03
(PID.TID 0000.0001) %MON advcfl_vvel_max              =   6.0847568005687E-03
(PID.TID 0000.0001) %MON advcfl_wvel_max              =   9.8686993453010E-03
(PID.TID 0000.0001) %MON advcfl_W_hf_max              =   9.8686993453010E-03
(PID.TID 0000.0001) %MON pe_b_mean                    =   9.0435792080940E-05
(PID.TID 0000.0001) %MON ke_max                       =   3.3289465246525E-05
(PID.TID 0000.0001) %MON ke_mean                      =   1.2760793034211E-06
(PID.TID 0000.0001) %MON ke_vol                       =   1.8654725220387E+09
(PID.TID 0000.0001) %MON vort_r_min                   =  -1.2704707464358E-04
(PID.TID 0000.0001) %MON vort_r_max                   =   1.1836450337043E-04
(PID.TID 0000.0001) %MON vort_a_mean                  =   1.0000782634673E-04
(PID.TID 0000.0001) %MON vort_a_sd                    =   1.5471968226722E-05
(PID.TID 0000.0001) %MON vort_p_mean                  =   1.1991916022492E-04
(PID.TID 0000.0001) %MON vort_p_sd                    =   7.2458066794518E-05
(PID.TID 0000.0001) %MON surfExpan_theta_mean         =  -1.0541507452807E-13
(PID.TID 0000.0001) %MON surfExpan_salt_mean          =  -4.6451329591499E-14
(PID.TID 0000.0001) // =======================================================
(PID.TID 0000.0001) // End MONITOR dynamic field statistics
(PID.TID 0000.0001) // =======================================================
(PID.TID 0000.0001) %CHECKPOINT    329400 0000329400
(PID.TID 0000.0001) // =======================================================
(PID.TID 0000.0001) // Begin MONITOR dynamic field statistics
(PID.TID 0000.0001) // =======================================================
(PID.TID 0000.0001) %MON time_tsnumber                =                330480
(PID.TID 0000.0001) %MON time_secondsf                =   2.6438400000000E+07
(PID.TID 0000.0001) %MON dynstat_eta_max              =   2.1151200805669E-01
(PID.TID 0000.0001) %MON dynstat_eta_min              =  -1.3433967236201E-01
(PID.TID 0000.0001) %MON dynstat_eta_mean             =   2.2081995587076E-16
(PID.TID 0000.0001) %MON dynstat_eta_sd               =   6.2682512702544E-02
(PID.TID 0000.0001) %MON dynstat_eta_del2             =   1.3650928047123E-03
(PID.TID 0000.0001) %MON dynstat_uvel_max             =   9.4568570512730E-03
(PID.TID 0000.0001) %MON dynstat_uvel_min             =  -1.0256055859364E-02
(PID.TID 0000.0001) %MON dynstat_uvel_mean            =  -5.9631716601807E-12
(PID.TID 0000.0001) %MON dynstat_uvel_sd              =   1.5721918881352E-03
(PID.TID 0000.0001) %MON dynstat_uvel_del2            =   1.2419947696709E-05
(PID.TID 0000.0001) %MON dynstat_vvel_max             =   3.6897392485381E-03
(PID.TID 0000.0001) %MON dynstat_vvel_min             =  -6.2896341974993E-03
(PID.TID 0000.0001) %MON dynstat_vvel_mean            =   3.4102290518963E-12
(PID.TID 0000.0001) %MON dynstat_vvel_sd              =   4.8060120490250E-04
(PID.TID 0000.0001) %MON dynstat_vvel_del2            =   1.0215433594268E-05
(PID.TID 0000.0001) %MON dynstat_wvel_max             =   5.2254322780875E-04
(PID.TID 0000.0001) %MON dynstat_wvel_min             =  -6.6182474631650E-04
(PID.TID 0000.0001) %MON dynstat_wvel_mean            =   2.4337429500325E-12
(PID.TID 0000.0001) %MON dynstat_wvel_sd              =   4.3289509005324E-05
(PID.TID 0000.0001) %MON dynstat_wvel_del2            =   1.3663024986117E-06
(PID.TID 0000.0001) %MON dynstat_theta_max            =  -2.1009666815677E+00
(PID.TID 0000.0001) %MON dynstat_theta_min            =  -2.2545599841708E+00
(PID.TID 0000.0001) %MON dynstat_theta_mean           =  -2.1283005690544E+00
(PID.TID 0000.0001) %MON dynstat_theta_sd             =   2.8734281203820E-02
(PID.TID 0000.0001) %MON dynstat_theta_del2           =   3.4647540645934E-05
(PID.TID 0000.0001) %MON dynstat_salt_max             =   3.4499941933468E+01
(PID.TID 0000.0001) %MON dynstat_salt_min             =   3.4454009481061E+01
(PID.TID 0000.0001) %MON dynstat_salt_mean            =   3.4489826614499E+01
(PID.TID 0000.0001) %MON dynstat_salt_sd              =   1.0818174779757E-02
(PID.TID 0000.0001) %MON dynstat_salt_del2            =   2.4367709985802E-06
(PID.TID 0000.0001) %MON trAdv_CFL_u_max              =   4.8287161601901E-03
(PID.TID 0000.0001) %MON trAdv_CFL_v_max              =   5.9751524876243E-03
(PID.TID 0000.0001) %MON trAdv_CFL_w_max              =   4.8132708823018E-03
(PID.TID 0000.0001) %MON advcfl_uvel_max              =   3.5570176714351E-03
(PID.TID 0000.0001) %MON advcfl_vvel_max              =   5.9751524876243E-03
(PID.TID 0000.0001) %MON advcfl_wvel_max              =   4.8132708823018E-03
(PID.TID 0000.0001) %MON advcfl_W_hf_max              =   6.4086896904197E-03
(PID.TID 0000.0001) %MON pe_b_mean                    =   9.0429039021845E-05
(PID.TID 0000.0001) %MON ke_max                       =   3.3056708851714E-05
(PID.TID 0000.0001) %MON ke_mean                      =   1.2876645676181E-06
(PID.TID 0000.0001) %MON ke_vol                       =   1.8654725220387E+09
(PID.TID 0000.0001) %MON vort_r_min                   =  -1.3833354265976E-04
(PID.TID 0000.0001) %MON vort_r_max                   =   1.2179066332995E-04
(PID.TID 0000.0001) %MON vort_a_mean                  =   1.0000782634673E-04
(PID.TID 0000.0001) %MON vort_a_sd                    =   1.5512086682041E-05
(PID.TID 0000.0001) %MON vort_p_mean                  =   1.1991916022492E-04
(PID.TID 0000.0001) %MON vort_p_sd                    =   7.2399359645529E-05
(PID.TID 0000.0001) %MON surfExpan_theta_mean         =  -1.0156341681884E-13
(PID.TID 0000.0001) %MON surfExpan_salt_mean          =  -4.3641603376015E-14
(PID.TID 0000.0001) // =======================================================
(PID.TID 0000.0001) // End MONITOR dynamic field statistics
(PID.TID 0000.0001) // =======================================================
(PID.TID 0000.0001) // =======================================================
(PID.TID 0000.0001) // Begin MONITOR dynamic field statistics
(PID.TID 0000.0001) // =======================================================
(PID.TID 0000.0001) %MON time_tsnumber                =                333720
(PID.TID 0000.0001) %MON time_secondsf                =   2.6697600000000E+07
(PID.TID 0000.0001) %MON dynstat_eta_max              =   2.1150696123830E-01
(PID.TID 0000.0001) %MON dynstat_eta_min              =  -1.3433703851237E-01
(PID.TID 0000.0001) %MON dynstat_eta_mean             =   2.3552279212849E-16
(PID.TID 0000.0001) %MON dynstat_eta_sd               =   6.2680235053223E-02
(PID.TID 0000.0001) %MON dynstat_eta_del2             =   1.3650494171784E-03
(PID.TID 0000.0001) %MON dynstat_uvel_max             =   1.2949680812861E-02
(PID.TID 0000.0001) %MON dynstat_uvel_min             =  -1.0360525807839E-02
(PID.TID 0000.0001) %MON dynstat_uvel_mean            =  -1.3336768207276E-11
(PID.TID 0000.0001) %MON dynstat_uvel_sd              =   1.5536590921172E-03
(PID.TID 0000.0001) %MON dynstat_uvel_del2            =   1.1090062832570E-05
(PID.TID 0000.0001) %MON dynstat_vvel_max             =   3.5713847519765E-03
(PID.TID 0000.0001) %MON dynstat_vvel_min             =  -5.7779316674207E-03
(PID.TID 0000.0001) %MON dynstat_vvel_mean            =   2.7231540526352E-12
(PID.TID 0000.0001) %MON dynstat_vvel_sd              =   4.7881111819014E-04
(PID.TID 0000.0001) %MON dynstat_vvel_del2            =   9.7598227113729E-06
(PID.TID 0000.0001) %MON dynstat_wvel_max             =   6.2869573949930E-04
(PID.TID 0000.0001) %MON dynstat_wvel_min             =  -7.1989570326793E-04
(PID.TID 0000.0001) %MON dynstat_wvel_mean            =   2.3926945399886E-12
(PID.TID 0000.0001) %MON dynstat_wvel_sd              =   4.3042195816941E-05
(PID.TID 0000.0001) %MON dynstat_wvel_del2            =   1.3381328647348E-06
(PID.TID 0000.0001) %MON dynstat_theta_max            =  -2.1009708414030E+00
(PID.TID 0000.0001) %MON dynstat_theta_min            =  -2.2547002477823E+00
(PID.TID 0000.0001) %MON dynstat_theta_mean           =  -2.1284265922951E+00
(PID.TID 0000.0001) %MON dynstat_theta_sd             =   2.8829763539947E-02
(PID.TID 0000.0001) %MON dynstat_theta_del2           =   3.3593308097267E-05
(PID.TID 0000.0001) %MON dynstat_salt_max             =   3.4499941372867E+01
(PID.TID 0000.0001) %MON dynstat_salt_min             =   3.4453744272210E+01
(PID.TID 0000.0001) %MON dynstat_salt_mean            =   3.4489789261108E+01
(PID.TID 0000.0001) %MON dynstat_salt_sd              =   1.0841338337128E-02
(PID.TID 0000.0001) %MON dynstat_salt_del2            =   2.3297774202612E-06
(PID.TID 0000.0001) %MON trAdv_CFL_u_max              =   4.7579830800779E-03
(PID.TID 0000.0001) %MON trAdv_CFL_v_max              =   5.4890350840497E-03
(PID.TID 0000.0001) %MON trAdv_CFL_w_max              =   5.2356051146758E-03
(PID.TID 0000.0001) %MON advcfl_uvel_max              =   4.4912239288101E-03
(PID.TID 0000.0001) %MON advcfl_vvel_max              =   5.4890350840497E-03
(PID.TID 0000.0001) %MON advcfl_wvel_max              =   5.2356051146758E-03
(PID.TID 0000.0001) %MON advcfl_W_hf_max              =   6.3166256085142E-03
(PID.TID 0000.0001) %MON pe_b_mean                    =   9.0422303019543E-05
(PID.TID 0000.0001) %MON ke_max                       =   4.8817139284129E-05
(PID.TID 0000.0001) %MON ke_mean                      =   1.2591383168592E-06
(PID.TID 0000.0001) %MON ke_vol                       =   1.8654725220387E+09
(PID.TID 0000.0001) %MON vort_r_min                   =  -1.5377745965272E-04
(PID.TID 0000.0001) %MON vort_r_max                   =   1.5377745965272E-04
(PID.TID 0000.0001) %MON vort_a_mean                  =   1.0000782634673E-04
(PID.TID 0000.0001) %MON vort_a_sd                    =   1.5481218252876E-05
(PID.TID 0000.0001) %MON vort_p_mean                  =   1.1991916022492E-04
(PID.TID 0000.0001) %MON vort_p_sd                    =   7.2228829313321E-05
(PID.TID 0000.0001) %MON surfExpan_theta_mean         =  -9.6032199955339E-14
(PID.TID 0000.0001) %MON surfExpan_salt_mean          =  -4.3156582691259E-14
(PID.TID 0000.0001) // =======================================================
(PID.TID 0000.0001) // End MONITOR dynamic field statistics
(PID.TID 0000.0001) // =======================================================
(PID.TID 0000.0001) // =======================================================
(PID.TID 0000.0001) // Begin MONITOR dynamic field statistics
(PID.TID 0000.0001) // =======================================================
(PID.TID 0000.0001) %MON time_tsnumber                =                336960
(PID.TID 0000.0001) %MON time_secondsf                =   2.6956800000000E+07
(PID.TID 0000.0001) %MON dynstat_eta_max              =   2.1150227936385E-01
(PID.TID 0000.0001) %MON dynstat_eta_min              =  -1.3432810226279E-01
(PID.TID 0000.0001) %MON dynstat_eta_mean             =   2.4439997628410E-16
(PID.TID 0000.0001) %MON dynstat_eta_sd               =   6.2677896240907E-02
(PID.TID 0000.0001) %MON dynstat_eta_del2             =   1.3650045732439E-03
(PID.TID 0000.0001) %MON dynstat_uvel_max             =   9.6094309172601E-03
(PID.TID 0000.0001) %MON dynstat_uvel_min             =  -1.0564696527354E-02
(PID.TID 0000.0001) %MON dynstat_uvel_mean            =  -7.8178118385971E-12
(PID.TID 0000.0001) %MON dynstat_uvel_sd              =   1.5491538665111E-03
(PID.TID 0000.0001) %MON dynstat_uvel_del2            =   1.1653809386776E-05
(PID.TID 0000.0001) %MON dynstat_vvel_max             =   3.5405413543168E-03
(PID.TID 0000.0001) %MON dynstat_vvel_min             =  -5.8859788100487E-03
(PID.TID 0000.0001) %MON dynstat_vvel_mean            =   3.1647737648925E-12
(PID.TID 0000.0001) %MON dynstat_vvel_sd              =   4.8464151342235E-04
(PID.TID 0000.0001) %MON dynstat_vvel_del2            =   1.0102245612218E-05
(PID.TID 0000.0001) %MON dynstat_wvel_max             =   9.1882898183237E-04
(PID.TID 0000.0001) %MON dynstat_wvel_min             =  -6.4059766675986E-04
(PID.TID 0000.0001) %MON dynstat_wvel_mean            =   2.5063661486640E-12
(PID.TID 0000.0001) %MON dynstat_wvel_sd              =   4.3602365408835E-05
(PID.TID 0000.0001) %MON dynstat_wvel_del2            =   1.4248016588251E-06
(PID.TID 0000.0001) %MON dynstat_theta_max            =  -2.1009730287942E+00
(PID.TID 0000.0001) %MON dynstat_theta_min            =  -2.2549927709597E+00
(PID.TID 0000.0001) %MON dynstat_theta_mean           =  -2.1285523300250E+00
(PID.TID 0000.0001) %MON dynstat_theta_sd             =   2.8923446193606E-02
(PID.TID 0000.0001) %MON dynstat_theta_del2           =   3.4236376088290E-05
(PID.TID 0000.0001) %MON dynstat_salt_max             =   3.4499940834238E+01
(PID.TID 0000.0001) %MON dynstat_salt_min             =   3.4453653278392E+01
(PID.TID 0000.0001) %MON dynstat_salt_mean            =   3.4489752025284E+01
(PID.TID 0000.0001) %MON dynstat_salt_sd              =   1.0864458793954E-02
(PID.TID 0000.0001) %MON dynstat_salt_del2            =   2.3242048750471E-06
(PID.TID 0000.0001) %MON trAdv_CFL_u_max              =   4.8665035904875E-03
(PID.TID 0000.0001) %MON trAdv_CFL_v_max              =   5.5916798695463E-03
(PID.TID 0000.0001) %MON trAdv_CFL_w_max              =   6.6823925951445E-03
(PID.TID 0000.0001) %MON advcfl_uvel_max              =   3.6640608004135E-03
(PID.TID 0000.0001) %MON advcfl_vvel_max              =   5.5916798695463E-03
(PID.TID 0000.0001) %MON advcfl_wvel_max              =   6.6823925951445E-03
(PID.TID 0000.0001) %MON advcfl_W_hf_max              =   6.6823925951445E-03
(PID.TID 0000.0001) %MON pe_b_mean                    =   9.0415393989476E-05
(PID.TID 0000.0001) %MON ke_max                       =   3.1560280403564E-05
(PID.TID 0000.0001) %MON ke_mean                      =   1.2549516591276E-06
(PID.TID 0000.0001) %MON ke_vol                       =   1.8654725220387E+09
(PID.TID 0000.0001) %MON vort_r_min                   =  -1.2473711842960E-04
(PID.TID 0000.0001) %MON vort_r_max                   =   1.2545577126233E-04
(PID.TID 0000.0001) %MON vort_a_mean                  =   1.0000782634673E-04
(PID.TID 0000.0001) %MON vort_a_sd                    =   1.5260824536466E-05
(PID.TID 0000.0001) %MON vort_p_mean                  =   1.1991916022492E-04
(PID.TID 0000.0001) %MON vort_p_sd                    =   7.1906355433558E-05
(PID.TID 0000.0001) %MON surfExpan_theta_mean         =  -9.6448349153754E-14
(PID.TID 0000.0001) %MON surfExpan_salt_mean          =  -4.1730785327497E-14
(PID.TID 0000.0001) // =======================================================
(PID.TID 0000.0001) // End MONITOR dynamic field statistics
(PID.TID 0000.0001) // =======================================================
(PID.TID 0000.0001) // =======================================================
(PID.TID 0000.0001) // Begin MONITOR dynamic field statistics
(PID.TID 0000.0001) // =======================================================
(PID.TID 0000.0001) %MON time_tsnumber                =                340200
(PID.TID 0000.0001) %MON time_secondsf                =   2.7216000000000E+07
(PID.TID 0000.0001) %MON dynstat_eta_max              =   2.1149757520306E-01
(PID.TID 0000.0001) %MON dynstat_eta_min              =  -1.3432238649283E-01
(PID.TID 0000.0001) %MON dynstat_eta_mean             =   2.4772892034245E-16
(PID.TID 0000.0001) %MON dynstat_eta_sd               =   6.2675682163633E-02
(PID.TID 0000.0001) %MON dynstat_eta_del2             =   1.3649586407913E-03
(PID.TID 0000.0001) %MON dynstat_uvel_max             =   9.5545047847462E-03
(PID.TID 0000.0001) %MON dynstat_uvel_min             =  -1.0732125457275E-02
(PID.TID 0000.0001) %MON dynstat_uvel_mean            =   3.5956364926172E-12
(PID.TID 0000.0001) %MON dynstat_uvel_sd              =   1.5577135255438E-03
(PID.TID 0000.0001) %MON dynstat_uvel_del2            =   1.1648101241853E-05
(PID.TID 0000.0001) %MON dynstat_vvel_max             =   3.8182008988024E-03
(PID.TID 0000.0001) %MON dynstat_vvel_min             =  -5.7537054800176E-03
(PID.TID 0000.0001) %MON dynstat_vvel_mean            =   2.9802094822105E-12
(PID.TID 0000.0001) %MON dynstat_vvel_sd              =   4.6667577765837E-04
(PID.TID 0000.0001) %MON dynstat_vvel_del2            =   9.4904999889273E-06
(PID.TID 0000.0001) %MON dynstat_wvel_max             =   6.2795238544314E-04
(PID.TID 0000.0001) %MON dynstat_wvel_min             =  -6.7792773252977E-04
(PID.TID 0000.0001) %MON dynstat_wvel_mean            =   2.2466646566025E-12
(PID.TID 0000.0001) %MON dynstat_wvel_sd              =   3.9362021298324E-05
(PID.TID 0000.0001) %MON dynstat_wvel_del2            =   1.2558594304185E-06
(PID.TID 0000.0001) %MON dynstat_theta_max            =  -2.1009770877750E+00
(PID.TID 0000.0001) %MON dynstat_theta_min            =  -2.2553730387646E+00
(PID.TID 0000.0001) %MON dynstat_theta_mean           =  -2.1286782437690E+00
(PID.TID 0000.0001) %MON dynstat_theta_sd             =   2.9015001907814E-02
(PID.TID 0000.0001) %MON dynstat_theta_del2           =   3.4997551634420E-05
(PID.TID 0000.0001) %MON dynstat_salt_max             =   3.4499940193193E+01
(PID.TID 0000.0001) %MON dynstat_salt_min             =   3.4453657769326E+01
(PID.TID 0000.0001) %MON dynstat_salt_mean            =   3.4489714716808E+01
(PID.TID 0000.0001) %MON dynstat_salt_sd              =   1.0887677104540E-02
(PID.TID 0000.0001) %MON dynstat_salt_del2            =   2.3706823642047E-06
(PID.TID 0000.0001) %MON trAdv_CFL_u_max              =   4.8738218675300E-03
(PID.TID 0000.0001) %MON trAdv_CFL_v_max              =   5.4660202060168E-03
(PID.TID 0000.0001) %MON trAdv_CFL_w_max              =   4.9303835093074E-03
(PID.TID 0000.0001) %MON advcfl_uvel_max              =   3.7221287039628E-03
(PID.TID 0000.0001) %MON advcfl_vvel_max              =   5.4660202060168E-03
(PID.TID 0000.0001) %MON advcfl_wvel_max              =   4.9303835093074E-03
(PID.TID 0000.0001) %MON advcfl_W_hf_max              =   6.6233092723530E-03
(PID.TID 0000.0001) %MON pe_b_mean                    =   9.0408801971332E-05
(PID.TID 0000.0001) %MON ke_max                       =   3.2206874970959E-05
(PID.TID 0000.0001) %MON ke_mean                      =   1.2600529177632E-06
(PID.TID 0000.0001) %MON ke_vol                       =   1.8654725220387E+09
(PID.TID 0000.0001) %MON vort_r_min                   =  -1.2292711917414E-04
(PID.TID 0000.0001) %MON vort_r_max                   =   1.2744398980514E-04
(PID.TID 0000.0001) %MON vort_a_mean                  =   1.0000782634673E-04
(PID.TID 0000.0001) %MON vort_a_sd                    =   1.5334729943583E-05
(PID.TID 0000.0001) %MON vort_p_mean                  =   1.1991916022492E-04
(PID.TID 0000.0001) %MON vort_p_sd                    =   7.1829241808946E-05
(PID.TID 0000.0001) %MON surfExpan_theta_mean         =  -9.9001907667294E-14
(PID.TID 0000.0001) %MON surfExpan_salt_mean          =  -4.3144580853061E-14
(PID.TID 0000.0001) // =======================================================
(PID.TID 0000.0001) // End MONITOR dynamic field statistics
(PID.TID 0000.0001) // =======================================================
(PID.TID 0000.0001) // =======================================================
(PID.TID 0000.0001) // Begin MONITOR dynamic field statistics
(PID.TID 0000.0001) // =======================================================
(PID.TID 0000.0001) %MON time_tsnumber                =                343440
(PID.TID 0000.0001) %MON time_secondsf                =   2.7475200000000E+07
(PID.TID 0000.0001) %MON dynstat_eta_max              =   2.1149278497979E-01
(PID.TID 0000.0001) %MON dynstat_eta_min              =  -1.3432058489401E-01
(PID.TID 0000.0001) %MON dynstat_eta_mean             =   2.5244492442512E-16
(PID.TID 0000.0001) %MON dynstat_eta_sd               =   6.2673542548709E-02
(PID.TID 0000.0001) %MON dynstat_eta_del2             =   1.3649124283494E-03
(PID.TID 0000.0001) %MON dynstat_uvel_max             =   9.6156953757262E-03
(PID.TID 0000.0001) %MON dynstat_uvel_min             =  -1.0973257151691E-02
(PID.TID 0000.0001) %MON dynstat_uvel_mean            =   1.0061096843791E-12
(PID.TID 0000.0001) %MON dynstat_uvel_sd              =   1.5483609656816E-03
(PID.TID 0000.0001) %MON dynstat_uvel_del2            =   1.2250771778943E-05
(PID.TID 0000.0001) %MON dynstat_vvel_max             =   3.9263533640575E-03
(PID.TID 0000.0001) %MON dynstat_vvel_min             =  -5.5240428914300E-03
(PID.TID 0000.0001) %MON dynstat_vvel_mean            =   2.0398836355225E-12
(PID.TID 0000.0001) %MON dynstat_vvel_sd              =   4.6286384408565E-04
(PID.TID 0000.0001) %MON dynstat_vvel_del2            =   9.6594243094079E-06
(PID.TID 0000.0001) %MON dynstat_wvel_max             =   8.1807431261718E-04
(PID.TID 0000.0001) %MON dynstat_wvel_min             =  -8.5789476659001E-04
(PID.TID 0000.0001) %MON dynstat_wvel_mean            =   2.1111216170276E-12
(PID.TID 0000.0001) %MON dynstat_wvel_sd              =   4.4082423577572E-05
(PID.TID 0000.0001) %MON dynstat_wvel_del2            =   1.5217127188188E-06
(PID.TID 0000.0001) %MON dynstat_theta_max            =  -2.1009811589992E+00
(PID.TID 0000.0001) %MON dynstat_theta_min            =  -2.2557632571393E+00
(PID.TID 0000.0001) %MON dynstat_theta_mean           =  -2.1288040427888E+00
(PID.TID 0000.0001) %MON dynstat_theta_sd             =   2.9107364507520E-02
(PID.TID 0000.0001) %MON dynstat_theta_del2           =   3.4653255658390E-05
(PID.TID 0000.0001) %MON dynstat_salt_max             =   3.4499939959857E+01
(PID.TID 0000.0001) %MON dynstat_salt_min             =   3.4453651881298E+01
(PID.TID 0000.0001) %MON dynstat_salt_mean            =   3.4489677455612E+01
(PID.TID 0000.0001) %MON dynstat_salt_sd              =   1.0911149691810E-02
(PID.TID 0000.0001) %MON dynstat_salt_del2            =   2.3769998530867E-06
(PID.TID 0000.0001) %MON trAdv_CFL_u_max              =   4.9477223543972E-03
(PID.TID 0000.0001) %MON trAdv_CFL_v_max              =   5.2478407468585E-03
(PID.TID 0000.0001) %MON trAdv_CFL_w_max              =   6.2392346661092E-03
(PID.TID 0000.0001) %MON advcfl_uvel_max              =   3.8057582892483E-03
(PID.TID 0000.0001) %MON advcfl_vvel_max              =   5.2478407468585E-03
(PID.TID 0000.0001) %MON advcfl_wvel_max              =   6.2392346661092E-03
(PID.TID 0000.0001) %MON advcfl_W_hf_max              =   6.6043713166457E-03
(PID.TID 0000.0001) %MON pe_b_mean                    =   9.0402383931688E-05
(PID.TID 0000.0001) %MON ke_max                       =   3.3465024124107E-05
(PID.TID 0000.0001) %MON ke_mean                      =   1.2445490563933E-06
(PID.TID 0000.0001) %MON ke_vol                       =   1.8654725220387E+09
(PID.TID 0000.0001) %MON vort_r_min                   =  -1.2330880297835E-04
(PID.TID 0000.0001) %MON vort_r_max                   =   1.3030742867634E-04
(PID.TID 0000.0001) %MON vort_a_mean                  =   1.0000782634673E-04
(PID.TID 0000.0001) %MON vort_a_sd                    =   1.5190774508146E-05
(PID.TID 0000.0001) %MON vort_p_mean                  =   1.1991916022492E-04
(PID.TID 0000.0001) %MON vort_p_sd                    =   7.1597248288850E-05
(PID.TID 0000.0001) %MON surfExpan_theta_mean         =  -9.3210739164994E-14
(PID.TID 0000.0001) %MON surfExpan_salt_mean          =  -3.9642829006717E-14
(PID.TID 0000.0001) // =======================================================
(PID.TID 0000.0001) // End MONITOR dynamic field statistics
(PID.TID 0000.0001) // =======================================================
(PID.TID 0000.0001) // =======================================================
(PID.TID 0000.0001) // Begin MONITOR dynamic field statistics
(PID.TID 0000.0001) // =======================================================
(PID.TID 0000.0001) %MON time_tsnumber                =                346680
(PID.TID 0000.0001) %MON time_secondsf                =   2.7734400000000E+07
(PID.TID 0000.0001) %MON dynstat_eta_max              =   2.1148828905070E-01
(PID.TID 0000.0001) %MON dynstat_eta_min              =  -1.3431583784897E-01
(PID.TID 0000.0001) %MON dynstat_eta_mean             =   2.5105786440081E-16
(PID.TID 0000.0001) %MON dynstat_eta_sd               =   6.2671448796148E-02
(PID.TID 0000.0001) %MON dynstat_eta_del2             =   1.3648767517932E-03
(PID.TID 0000.0001) %MON dynstat_uvel_max             =   9.6880906296261E-03
(PID.TID 0000.0001) %MON dynstat_uvel_min             =  -1.0901157140373E-02
(PID.TID 0000.0001) %MON dynstat_uvel_mean            =   3.1750607629687E-12
(PID.TID 0000.0001) %MON dynstat_uvel_sd              =   1.5396015188373E-03
(PID.TID 0000.0001) %MON dynstat_uvel_del2            =   1.1745399391354E-05
(PID.TID 0000.0001) %MON dynstat_vvel_max             =   4.1743726974463E-03
(PID.TID 0000.0001) %MON dynstat_vvel_min             =  -5.5558739215489E-03
(PID.TID 0000.0001) %MON dynstat_vvel_mean            =   4.1824403432575E-12
(PID.TID 0000.0001) %MON dynstat_vvel_sd              =   4.7056138183497E-04
(PID.TID 0000.0001) %MON dynstat_vvel_del2            =   9.9235427767928E-06
(PID.TID 0000.0001) %MON dynstat_wvel_max             =   6.9872406226760E-04
(PID.TID 0000.0001) %MON dynstat_wvel_min             =  -9.8375530406708E-04
(PID.TID 0000.0001) %MON dynstat_wvel_mean            =   2.1223743618673E-12
(PID.TID 0000.0001) %MON dynstat_wvel_sd              =   4.2762668311922E-05
(PID.TID 0000.0001) %MON dynstat_wvel_del2            =   1.4524715471461E-06
(PID.TID 0000.0001) %MON dynstat_theta_max            =  -2.1009832806650E+00
(PID.TID 0000.0001) %MON dynstat_theta_min            =  -2.2560511468639E+00
(PID.TID 0000.0001) %MON dynstat_theta_mean           =  -2.1289308082877E+00
(PID.TID 0000.0001) %MON dynstat_theta_sd             =   2.9195845512550E-02
(PID.TID 0000.0001) %MON dynstat_theta_del2           =   3.4620652500844E-05
(PID.TID 0000.0001) %MON dynstat_salt_max             =   3.4499939057308E+01
(PID.TID 0000.0001) %MON dynstat_salt_min             =   3.4453769294701E+01
(PID.TID 0000.0001) %MON dynstat_salt_mean            =   3.4489639796360E+01
(PID.TID 0000.0001) %MON dynstat_salt_sd              =   1.0934868914045E-02
(PID.TID 0000.0001) %MON dynstat_salt_del2            =   2.3910208054391E-06
(PID.TID 0000.0001) %MON trAdv_CFL_u_max              =   4.9515430151927E-03
(PID.TID 0000.0001) %MON trAdv_CFL_v_max              =   5.2780802254714E-03
(PID.TID 0000.0001) %MON trAdv_CFL_w_max              =   7.1545840295788E-03
(PID.TID 0000.0001) %MON advcfl_uvel_max              =   3.7807524763035E-03
(PID.TID 0000.0001) %MON advcfl_vvel_max              =   5.2780802254714E-03
(PID.TID 0000.0001) %MON advcfl_wvel_max              =   7.1545840295788E-03
(PID.TID 0000.0001) %MON advcfl_W_hf_max              =   7.1545840295788E-03
(PID.TID 0000.0001) %MON pe_b_mean                    =   9.0396081960182E-05
(PID.TID 0000.0001) %MON ke_max                       =   3.3234517111063E-05
(PID.TID 0000.0001) %MON ke_mean                      =   1.2348006846479E-06
(PID.TID 0000.0001) %MON ke_vol                       =   1.8654725220387E+09
(PID.TID 0000.0001) %MON vort_r_min                   =  -1.2231847021251E-04
(PID.TID 0000.0001) %MON vort_r_max                   =   1.2945124104193E-04
(PID.TID 0000.0001) %MON vort_a_mean                  =   1.0000782634673E-04
(PID.TID 0000.0001) %MON vort_a_sd                    =   1.5132185320142E-05
(PID.TID 0000.0001) %MON vort_p_mean                  =   1.1991916022492E-04
(PID.TID 0000.0001) %MON vort_p_sd                    =   7.1548752489147E-05
(PID.TID 0000.0001) %MON surfExpan_theta_mean         =  -9.9871439927861E-14
(PID.TID 0000.0001) %MON surfExpan_salt_mean          =  -4.1672379899828E-14
(PID.TID 0000.0001) // =======================================================
(PID.TID 0000.0001) // End MONITOR dynamic field statistics
(PID.TID 0000.0001) // =======================================================
(PID.TID 0000.0001) // =======================================================
(PID.TID 0000.0001) // Begin MONITOR dynamic field statistics
(PID.TID 0000.0001) // =======================================================
(PID.TID 0000.0001) %MON time_tsnumber                =                349920
(PID.TID 0000.0001) %MON time_secondsf                =   2.7993600000000E+07
(PID.TID 0000.0001) %MON dynstat_eta_max              =   2.1148370295895E-01
(PID.TID 0000.0001) %MON dynstat_eta_min              =  -1.3431232874334E-01
(PID.TID 0000.0001) %MON dynstat_eta_mean             =   2.5716092850779E-16
(PID.TID 0000.0001) %MON dynstat_eta_sd               =   6.2669422403286E-02
(PID.TID 0000.0001) %MON dynstat_eta_del2             =   1.3648344464749E-03
(PID.TID 0000.0001) %MON dynstat_uvel_max             =   9.8473207206886E-03
(PID.TID 0000.0001) %MON dynstat_uvel_min             =  -1.0951226361939E-02
(PID.TID 0000.0001) %MON dynstat_uvel_mean            =   1.1276102557963E-11
(PID.TID 0000.0001) %MON dynstat_uvel_sd              =   1.5202595808148E-03
(PID.TID 0000.0001) %MON dynstat_uvel_del2            =   1.0991261411503E-05
(PID.TID 0000.0001) %MON dynstat_vvel_max             =   3.8821604594867E-03
(PID.TID 0000.0001) %MON dynstat_vvel_min             =  -5.1789538586596E-03
(PID.TID 0000.0001) %MON dynstat_vvel_mean            =   3.0578392750111E-12
(PID.TID 0000.0001) %MON dynstat_vvel_sd              =   4.7494772543864E-04
(PID.TID 0000.0001) %MON dynstat_vvel_del2            =   9.8569661074433E-06
(PID.TID 0000.0001) %MON dynstat_wvel_max             =   6.5269869814329E-04
(PID.TID 0000.0001) %MON dynstat_wvel_min             =  -9.5061692514757E-04
(PID.TID 0000.0001) %MON dynstat_wvel_mean            =   2.1847906762904E-12
(PID.TID 0000.0001) %MON dynstat_wvel_sd              =   4.2025295588464E-05
(PID.TID 0000.0001) %MON dynstat_wvel_del2            =   1.3667808012391E-06
(PID.TID 0000.0001) %MON dynstat_theta_max            =  -2.1009848295474E+00
(PID.TID 0000.0001) %MON dynstat_theta_min            =  -2.2559755504075E+00
(PID.TID 0000.0001) %MON dynstat_theta_mean           =  -2.1290580871703E+00
(PID.TID 0000.0001) %MON dynstat_theta_sd             =   2.9285146410421E-02
(PID.TID 0000.0001) %MON dynstat_theta_del2           =   3.5888695213595E-05
(PID.TID 0000.0001) %MON dynstat_salt_max             =   3.4499938310026E+01
(PID.TID 0000.0001) %MON dynstat_salt_min             =   3.4454131467641E+01
(PID.TID 0000.0001) %MON dynstat_salt_mean            =   3.4489601925676E+01
(PID.TID 0000.0001) %MON dynstat_salt_sd              =   1.0958447174745E-02
(PID.TID 0000.0001) %MON dynstat_salt_del2            =   2.3994191296583E-06
(PID.TID 0000.0001) %MON trAdv_CFL_u_max              =   4.9988479090056E-03
(PID.TID 0000.0001) %MON trAdv_CFL_v_max              =   4.9200061657266E-03
(PID.TID 0000.0001) %MON trAdv_CFL_w_max              =   6.9135776374368E-03
(PID.TID 0000.0001) %MON advcfl_uvel_max              =   3.7981175441567E-03
(PID.TID 0000.0001) %MON advcfl_vvel_max              =   4.9200061657266E-03
(PID.TID 0000.0001) %MON advcfl_wvel_max              =   6.9135776374368E-03
(PID.TID 0000.0001) %MON advcfl_W_hf_max              =   6.9135776374368E-03
(PID.TID 0000.0001) %MON pe_b_mean                    =   9.0389965477409E-05
(PID.TID 0000.0001) %MON ke_max                       =   3.3685280490457E-05
(PID.TID 0000.0001) %MON ke_mean                      =   1.2082962568399E-06
(PID.TID 0000.0001) %MON ke_vol                       =   1.8654725220387E+09
(PID.TID 0000.0001) %MON vort_r_min                   =  -1.2275842269424E-04
(PID.TID 0000.0001) %MON vort_r_max                   =   1.3004581304802E-04
(PID.TID 0000.0001) %MON vort_a_mean                  =   1.0000782634673E-04
(PID.TID 0000.0001) %MON vort_a_sd                    =   1.4987532512722E-05
(PID.TID 0000.0001) %MON vort_p_mean                  =   1.1991916022492E-04
(PID.TID 0000.0001) %MON vort_p_sd                    =   7.1273708819168E-05
(PID.TID 0000.0001) %MON surfExpan_theta_mean         =  -9.6933824776361E-14
(PID.TID 0000.0001) %MON surfExpan_salt_mean          =  -4.2740811041506E-14
(PID.TID 0000.0001) // =======================================================
(PID.TID 0000.0001) // End MONITOR dynamic field statistics
(PID.TID 0000.0001) // =======================================================
(PID.TID 0000.0001) // =======================================================
(PID.TID 0000.0001) // Begin MONITOR dynamic field statistics
(PID.TID 0000.0001) // =======================================================
(PID.TID 0000.0001) %MON time_tsnumber                =                353160
(PID.TID 0000.0001) %MON time_secondsf                =   2.8252800000000E+07
(PID.TID 0000.0001) %MON dynstat_eta_max              =   2.1147889190136E-01
(PID.TID 0000.0001) %MON dynstat_eta_min              =  -1.3431053427389E-01
(PID.TID 0000.0001) %MON dynstat_eta_mean             =   2.3274867207986E-16
(PID.TID 0000.0001) %MON dynstat_eta_sd               =   6.2667343505581E-02
(PID.TID 0000.0001) %MON dynstat_eta_del2             =   1.3647913458570E-03
(PID.TID 0000.0001) %MON dynstat_uvel_max             =   9.6749506906733E-03
(PID.TID 0000.0001) %MON dynstat_uvel_min             =  -1.0767243587860E-02
(PID.TID 0000.0001) %MON dynstat_uvel_mean            =   4.3018301909542E-12
(PID.TID 0000.0001) %MON dynstat_uvel_sd              =   1.5335546674976E-03
(PID.TID 0000.0001) %MON dynstat_uvel_del2            =   1.2364893052360E-05
(PID.TID 0000.0001) %MON dynstat_vvel_max             =   4.1308249818677E-03
(PID.TID 0000.0001) %MON dynstat_vvel_min             =  -4.9357543507404E-03
(PID.TID 0000.0001) %MON dynstat_vvel_mean            =   3.6004730618235E-12
(PID.TID 0000.0001) %MON dynstat_vvel_sd              =   4.7678768449998E-04
(PID.TID 0000.0001) %MON dynstat_vvel_del2            =   9.9396057770252E-06
(PID.TID 0000.0001) %MON dynstat_wvel_max             =   7.1347443784377E-04
(PID.TID 0000.0001) %MON dynstat_wvel_min             =  -7.3271128130969E-04
(PID.TID 0000.0001) %MON dynstat_wvel_mean            =   2.2982090660755E-12
(PID.TID 0000.0001) %MON dynstat_wvel_sd              =   4.2660027659501E-05
(PID.TID 0000.0001) %MON dynstat_wvel_del2            =   1.4587077927949E-06
(PID.TID 0000.0001) %MON dynstat_theta_max            =  -2.1009863578485E+00
(PID.TID 0000.0001) %MON dynstat_theta_min            =  -2.2555240853940E+00
(PID.TID 0000.0001) %MON dynstat_theta_mean           =  -2.1291859247524E+00
(PID.TID 0000.0001) %MON dynstat_theta_sd             =   2.9369589516892E-02
(PID.TID 0000.0001) %MON dynstat_theta_del2           =   3.7345780501885E-05
(PID.TID 0000.0001) %MON dynstat_salt_max             =   3.4499937862053E+01
(PID.TID 0000.0001) %MON dynstat_salt_min             =   3.4453774312606E+01
(PID.TID 0000.0001) %MON dynstat_salt_mean            =   3.4489563824971E+01
(PID.TID 0000.0001) %MON dynstat_salt_sd              =   1.0981595128030E-02
(PID.TID 0000.0001) %MON dynstat_salt_del2            =   2.4390522016685E-06
(PID.TID 0000.0001) %MON trAdv_CFL_u_max              =   4.9926081446651E-03
(PID.TID 0000.0001) %MON trAdv_CFL_v_max              =   4.6889666332034E-03
(PID.TID 0000.0001) %MON trAdv_CFL_w_max              =   5.3288093186159E-03
(PID.TID 0000.0001) %MON advcfl_uvel_max              =   3.7343084163975E-03
(PID.TID 0000.0001) %MON advcfl_vvel_max              =   4.6889666332034E-03
(PID.TID 0000.0001) %MON advcfl_wvel_max              =   5.3288093186159E-03
(PID.TID 0000.0001) %MON advcfl_W_hf_max              =   7.0637988567497E-03
(PID.TID 0000.0001) %MON pe_b_mean                    =   9.0383666893667E-05
(PID.TID 0000.0001) %MON ke_max                       =   3.2967284681638E-05
(PID.TID 0000.0001) %MON ke_mean                      =   1.2285336436271E-06
(PID.TID 0000.0001) %MON ke_vol                       =   1.8654725220387E+09
(PID.TID 0000.0001) %MON vort_r_min                   =  -1.2292527006904E-04
(PID.TID 0000.0001) %MON vort_r_max                   =   1.2786101760584E-04
(PID.TID 0000.0001) %MON vort_a_mean                  =   1.0000782634673E-04
(PID.TID 0000.0001) %MON vort_a_sd                    =   1.5038587520042E-05
(PID.TID 0000.0001) %MON vort_p_mean                  =   1.1991916022492E-04
(PID.TID 0000.0001) %MON vort_p_sd                    =   7.1703043737985E-05
(PID.TID 0000.0001) %MON surfExpan_theta_mean         =  -1.1052532865266E-13
(PID.TID 0000.0001) %MON surfExpan_salt_mean          =  -4.4342014672994E-14
(PID.TID 0000.0001) // =======================================================
(PID.TID 0000.0001) // End MONITOR dynamic field statistics
(PID.TID 0000.0001) // =======================================================
(PID.TID 0000.0001) // =======================================================
(PID.TID 0000.0001) // Begin MONITOR dynamic field statistics
(PID.TID 0000.0001) // =======================================================
(PID.TID 0000.0001) %MON time_tsnumber                =                356400
(PID.TID 0000.0001) %MON time_secondsf                =   2.8512000000000E+07
(PID.TID 0000.0001) %MON dynstat_eta_max              =   2.1147406658633E-01
(PID.TID 0000.0001) %MON dynstat_eta_min              =  -1.3430416207182E-01
(PID.TID 0000.0001) %MON dynstat_eta_mean             =   2.3302608408473E-16
(PID.TID 0000.0001) %MON dynstat_eta_sd               =   6.2665232165788E-02
(PID.TID 0000.0001) %MON dynstat_eta_del2             =   1.3647461608943E-03
(PID.TID 0000.0001) %MON dynstat_uvel_max             =   9.7876519182177E-03
(PID.TID 0000.0001) %MON dynstat_uvel_min             =  -1.0922441802532E-02
(PID.TID 0000.0001) %MON dynstat_uvel_mean            =   8.0574577441061E-12
(PID.TID 0000.0001) %MON dynstat_uvel_sd              =   1.5264612639659E-03
(PID.TID 0000.0001) %MON dynstat_uvel_del2            =   1.1955762658291E-05
(PID.TID 0000.0001) %MON dynstat_vvel_max             =   4.2017398004238E-03
(PID.TID 0000.0001) %MON dynstat_vvel_min             =  -5.5501168459937E-03
(PID.TID 0000.0001) %MON dynstat_vvel_mean            =   2.6371896855494E-12
(PID.TID 0000.0001) %MON dynstat_vvel_sd              =   4.9581096255505E-04
(PID.TID 0000.0001) %MON dynstat_vvel_del2            =   1.0347098991199E-05
(PID.TID 0000.0001) %MON dynstat_wvel_max             =   6.8527086175613E-04
(PID.TID 0000.0001) %MON dynstat_wvel_min             =  -9.4911562105472E-04
(PID.TID 0000.0001) %MON dynstat_wvel_mean            =   2.2295467793435E-12
(PID.TID 0000.0001) %MON dynstat_wvel_sd              =   4.5844486909801E-05
(PID.TID 0000.0001) %MON dynstat_wvel_del2            =   1.5227619851074E-06
(PID.TID 0000.0001) %MON dynstat_theta_max            =  -2.1009891374833E+00
(PID.TID 0000.0001) %MON dynstat_theta_min            =  -2.2561602844981E+00
(PID.TID 0000.0001) %MON dynstat_theta_mean           =  -2.1293145202594E+00
(PID.TID 0000.0001) %MON dynstat_theta_sd             =   2.9448104269986E-02
(PID.TID 0000.0001) %MON dynstat_theta_del2           =   3.6954321633099E-05
(PID.TID 0000.0001) %MON dynstat_salt_max             =   3.4499937363275E+01
(PID.TID 0000.0001) %MON dynstat_salt_min             =   3.4454131339571E+01
(PID.TID 0000.0001) %MON dynstat_salt_mean            =   3.4489525412113E+01
(PID.TID 0000.0001) %MON dynstat_salt_sd              =   1.1004845305224E-02
(PID.TID 0000.0001) %MON dynstat_salt_del2            =   2.5706398886211E-06
(PID.TID 0000.0001) %MON trAdv_CFL_u_max              =   4.9495644503267E-03
(PID.TID 0000.0001) %MON trAdv_CFL_v_max              =   5.2726110036940E-03
(PID.TID 0000.0001) %MON trAdv_CFL_w_max              =   6.9026590622162E-03
(PID.TID 0000.0001) %MON advcfl_uvel_max              =   3.7881344485223E-03
(PID.TID 0000.0001) %MON advcfl_vvel_max              =   5.2726110036940E-03
(PID.TID 0000.0001) %MON advcfl_wvel_max              =   6.9026590622162E-03
(PID.TID 0000.0001) %MON advcfl_W_hf_max              =   6.9178313751355E-03
(PID.TID 0000.0001) %MON pe_b_mean                    =   9.0377250762457E-05
(PID.TID 0000.0001) %MON ke_max                       =   3.3322580868468E-05
(PID.TID 0000.0001) %MON ke_mean                      =   1.2264052652791E-06
(PID.TID 0000.0001) %MON ke_vol                       =   1.8654725220387E+09
(PID.TID 0000.0001) %MON vort_r_min                   =  -1.2248057974852E-04
(PID.TID 0000.0001) %MON vort_r_max                   =   1.2970399640506E-04
(PID.TID 0000.0001) %MON vort_a_mean                  =   1.0000782634673E-04
(PID.TID 0000.0001) %MON vort_a_sd                    =   1.5016628482144E-05
(PID.TID 0000.0001) %MON vort_p_mean                  =   1.1991916022492E-04
(PID.TID 0000.0001) %MON vort_p_sd                    =   7.1746600390972E-05
(PID.TID 0000.0001) %MON surfExpan_theta_mean         =  -1.0992080888770E-13
(PID.TID 0000.0001) %MON surfExpan_salt_mean          =  -4.6394121166337E-14
(PID.TID 0000.0001) // =======================================================
(PID.TID 0000.0001) // End MONITOR dynamic field statistics
(PID.TID 0000.0001) // =======================================================
(PID.TID 0000.0001) // =======================================================
(PID.TID 0000.0001) // Begin MONITOR dynamic field statistics
(PID.TID 0000.0001) // =======================================================
(PID.TID 0000.0001) %MON time_tsnumber                =                359640
(PID.TID 0000.0001) %MON time_secondsf                =   2.8771200000000E+07
(PID.TID 0000.0001) %MON dynstat_eta_max              =   2.1146919043896E-01
(PID.TID 0000.0001) %MON dynstat_eta_min              =  -1.3430145976482E-01
(PID.TID 0000.0001) %MON dynstat_eta_mean             =   2.3635502814308E-16
(PID.TID 0000.0001) %MON dynstat_eta_sd               =   6.2663266738416E-02
(PID.TID 0000.0001) %MON dynstat_eta_del2             =   1.3647083975914E-03
(PID.TID 0000.0001) %MON dynstat_uvel_max             =   9.7105292651229E-03
(PID.TID 0000.0001) %MON dynstat_uvel_min             =  -1.1743508811884E-02
(PID.TID 0000.0001) %MON dynstat_uvel_mean            =   1.5516918474433E-11
(PID.TID 0000.0001) %MON dynstat_uvel_sd              =   1.5075586061365E-03
(PID.TID 0000.0001) %MON dynstat_uvel_del2            =   1.1087519200578E-05
(PID.TID 0000.0001) %MON dynstat_vvel_max             =   4.1122897134734E-03
(PID.TID 0000.0001) %MON dynstat_vvel_min             =  -5.6880413575914E-03
(PID.TID 0000.0001) %MON dynstat_vvel_mean            =   2.2514372619813E-12
(PID.TID 0000.0001) %MON dynstat_vvel_sd              =   4.8096240609168E-04
(PID.TID 0000.0001) %MON dynstat_vvel_del2            =   9.9783280389652E-06
(PID.TID 0000.0001) %MON dynstat_wvel_max             =   5.1224611312249E-04
(PID.TID 0000.0001) %MON dynstat_wvel_min             =  -5.8459894131037E-04
(PID.TID 0000.0001) %MON dynstat_wvel_mean            =   1.8703055028148E-12
(PID.TID 0000.0001) %MON dynstat_wvel_sd              =   3.8903912692112E-05
(PID.TID 0000.0001) %MON dynstat_wvel_del2            =   1.2608473938783E-06
(PID.TID 0000.0001) %MON dynstat_theta_max            =  -2.1009937150787E+00
(PID.TID 0000.0001) %MON dynstat_theta_min            =  -2.2566053280128E+00
(PID.TID 0000.0001) %MON dynstat_theta_mean           =  -2.1294404809651E+00
(PID.TID 0000.0001) %MON dynstat_theta_sd             =   2.9522342870664E-02
(PID.TID 0000.0001) %MON dynstat_theta_del2           =   3.6803058219150E-05
(PID.TID 0000.0001) %MON dynstat_salt_max             =   3.4499936821647E+01
(PID.TID 0000.0001) %MON dynstat_salt_min             =   3.4454809845842E+01
(PID.TID 0000.0001) %MON dynstat_salt_mean            =   3.4489488084555E+01
(PID.TID 0000.0001) %MON dynstat_salt_sd              =   1.1027177802455E-02
(PID.TID 0000.0001) %MON dynstat_salt_del2            =   2.5559909216711E-06
(PID.TID 0000.0001) %MON trAdv_CFL_u_max              =   4.8716477801172E-03
(PID.TID 0000.0001) %MON trAdv_CFL_v_max              =   5.4036392897118E-03
(PID.TID 0000.0001) %MON trAdv_CFL_w_max              =   4.7121045327691E-03
(PID.TID 0000.0001) %MON advcfl_uvel_max              =   4.0728978996723E-03
(PID.TID 0000.0001) %MON advcfl_vvel_max              =   5.4036392897118E-03
(PID.TID 0000.0001) %MON advcfl_wvel_max              =   4.2516286640754E-03
(PID.TID 0000.0001) %MON advcfl_W_hf_max              =   7.2120555550705E-03
(PID.TID 0000.0001) %MON pe_b_mean                    =   9.0371242508442E-05
(PID.TID 0000.0001) %MON ke_max                       =   3.4477499803700E-05
(PID.TID 0000.0001) %MON ke_mean                      =   1.1924400059736E-06
(PID.TID 0000.0001) %MON ke_vol                       =   1.8654725220387E+09
(PID.TID 0000.0001) %MON vort_r_min                   =  -1.3945416714112E-04
(PID.TID 0000.0001) %MON vort_r_max                   =   1.3945416714112E-04
(PID.TID 0000.0001) %MON vort_a_mean                  =   1.0000782634673E-04
(PID.TID 0000.0001) %MON vort_a_sd                    =   1.4884632883744E-05
(PID.TID 0000.0001) %MON vort_p_mean                  =   1.1991916022492E-04
(PID.TID 0000.0001) %MON vort_p_sd                    =   7.1391182685667E-05
(PID.TID 0000.0001) %MON surfExpan_theta_mean         =  -1.1238357453249E-13
(PID.TID 0000.0001) %MON surfExpan_salt_mean          =  -4.3787119768085E-14
(PID.TID 0000.0001) // =======================================================
(PID.TID 0000.0001) // End MONITOR dynamic field statistics
(PID.TID 0000.0001) // =======================================================
(PID.TID 0000.0001) %CHECKPOINT    361800 0000361800
(PID.TID 0000.0001) // =======================================================
(PID.TID 0000.0001) // Begin MONITOR dynamic field statistics
(PID.TID 0000.0001) // =======================================================
(PID.TID 0000.0001) %MON time_tsnumber                =                362880
(PID.TID 0000.0001) %MON time_secondsf                =   2.9030400000000E+07
(PID.TID 0000.0001) %MON dynstat_eta_max              =   2.1146454542528E-01
(PID.TID 0000.0001) %MON dynstat_eta_min              =  -1.3430208789578E-01
(PID.TID 0000.0001) %MON dynstat_eta_mean             =   2.3108420005069E-16
(PID.TID 0000.0001) %MON dynstat_eta_sd               =   6.2661422146163E-02
(PID.TID 0000.0001) %MON dynstat_eta_del2             =   1.3646694484998E-03
(PID.TID 0000.0001) %MON dynstat_uvel_max             =   1.1620725007876E-02
(PID.TID 0000.0001) %MON dynstat_uvel_min             =  -1.0607989872934E-02
(PID.TID 0000.0001) %MON dynstat_uvel_mean            =   3.1245670780858E-12
(PID.TID 0000.0001) %MON dynstat_uvel_sd              =   1.5168069891588E-03
(PID.TID 0000.0001) %MON dynstat_uvel_del2            =   1.3349891950086E-05
(PID.TID 0000.0001) %MON dynstat_vvel_max             =   3.8870841688566E-03
(PID.TID 0000.0001) %MON dynstat_vvel_min             =  -5.0287082030706E-03
(PID.TID 0000.0001) %MON dynstat_vvel_mean            =   4.0415362512841E-12
(PID.TID 0000.0001) %MON dynstat_vvel_sd              =   4.7820692448420E-04
(PID.TID 0000.0001) %MON dynstat_vvel_del2            =   1.0521976620624E-05
(PID.TID 0000.0001) %MON dynstat_wvel_max             =   6.4608087380735E-04
(PID.TID 0000.0001) %MON dynstat_wvel_min             =  -6.2645009286259E-04
(PID.TID 0000.0001) %MON dynstat_wvel_mean            =   2.1353175213972E-12
(PID.TID 0000.0001) %MON dynstat_wvel_sd              =   4.4933465985002E-05
(PID.TID 0000.0001) %MON dynstat_wvel_del2            =   1.5272194390282E-06
(PID.TID 0000.0001) %MON dynstat_theta_max            =  -2.1009956573552E+00
(PID.TID 0000.0001) %MON dynstat_theta_min            =  -2.2562972706278E+00
(PID.TID 0000.0001) %MON dynstat_theta_mean           =  -2.1295632691608E+00
(PID.TID 0000.0001) %MON dynstat_theta_sd             =   2.9598381986168E-02
(PID.TID 0000.0001) %MON dynstat_theta_del2           =   3.7454961900913E-05
(PID.TID 0000.0001) %MON dynstat_salt_max             =   3.4499936367224E+01
(PID.TID 0000.0001) %MON dynstat_salt_min             =   3.4455010283034E+01
(PID.TID 0000.0001) %MON dynstat_salt_mean            =   3.4489452063752E+01
(PID.TID 0000.0001) %MON dynstat_salt_sd              =   1.1048612187211E-02
(PID.TID 0000.0001) %MON dynstat_salt_del2            =   2.6182182488884E-06
(PID.TID 0000.0001) %MON trAdv_CFL_u_max              =   4.8393915025380E-03
(PID.TID 0000.0001) %MON trAdv_CFL_v_max              =   4.7772727929171E-03
(PID.TID 0000.0001) %MON trAdv_CFL_w_max              =   4.7410059180820E-03
(PID.TID 0000.0001) %MON advcfl_uvel_max              =   4.0303138725753E-03
(PID.TID 0000.0001) %MON advcfl_vvel_max              =   4.7772727929171E-03
(PID.TID 0000.0001) %MON advcfl_wvel_max              =   4.6987699913262E-03
(PID.TID 0000.0001) %MON advcfl_W_hf_max              =   6.8509492353053E-03
(PID.TID 0000.0001) %MON pe_b_mean                    =   9.0365611899357E-05
(PID.TID 0000.0001) %MON ke_max                       =   3.4045928590160E-05
(PID.TID 0000.0001) %MON ke_mean                      =   1.2046607944577E-06
(PID.TID 0000.0001) %MON ke_vol                       =   1.8654725220387E+09
(PID.TID 0000.0001) %MON vort_r_min                   =  -1.3799610946852E-04
(PID.TID 0000.0001) %MON vort_r_max                   =   1.3799610946852E-04
(PID.TID 0000.0001) %MON vort_a_mean                  =   1.0000782634673E-04
(PID.TID 0000.0001) %MON vort_a_sd                    =   1.5032469531301E-05
(PID.TID 0000.0001) %MON vort_p_mean                  =   1.1991916022492E-04
(PID.TID 0000.0001) %MON vort_p_sd                    =   7.1643821299129E-05
(PID.TID 0000.0001) %MON surfExpan_theta_mean         =  -9.8666854816799E-14
(PID.TID 0000.0001) %MON surfExpan_salt_mean          =  -4.2189798181707E-14
(PID.TID 0000.0001) // =======================================================
(PID.TID 0000.0001) // End MONITOR dynamic field statistics
(PID.TID 0000.0001) // =======================================================
(PID.TID 0000.0001) // =======================================================
(PID.TID 0000.0001) // Begin MONITOR dynamic field statistics
(PID.TID 0000.0001) // =======================================================
(PID.TID 0000.0001) %MON time_tsnumber                =                366120
(PID.TID 0000.0001) %MON time_secondsf                =   2.9289600000000E+07
(PID.TID 0000.0001) %MON dynstat_eta_max              =   2.1145985524853E-01
(PID.TID 0000.0001) %MON dynstat_eta_min              =  -1.3429337573383E-01
(PID.TID 0000.0001) %MON dynstat_eta_mean             =   2.4107103222575E-16
(PID.TID 0000.0001) %MON dynstat_eta_sd               =   6.2659319515358E-02
(PID.TID 0000.0001) %MON dynstat_eta_del2             =   1.3646227303406E-03
(PID.TID 0000.0001) %MON dynstat_uvel_max             =   9.7034009423888E-03
(PID.TID 0000.0001) %MON dynstat_uvel_min             =  -1.0689784349872E-02
(PID.TID 0000.0001) %MON dynstat_uvel_mean            =   7.7953808328725E-12
(PID.TID 0000.0001) %MON dynstat_uvel_sd              =   1.5134840706338E-03
(PID.TID 0000.0001) %MON dynstat_uvel_del2            =   1.1150014447865E-05
(PID.TID 0000.0001) %MON dynstat_vvel_max             =   3.9142196127952E-03
(PID.TID 0000.0001) %MON dynstat_vvel_min             =  -5.2736829674687E-03
(PID.TID 0000.0001) %MON dynstat_vvel_mean            =   3.0089864994704E-12
(PID.TID 0000.0001) %MON dynstat_vvel_sd              =   4.7137862489068E-04
(PID.TID 0000.0001) %MON dynstat_vvel_del2            =   1.0274485365424E-05
(PID.TID 0000.0001) %MON dynstat_wvel_max             =   5.1715286063816E-04
(PID.TID 0000.0001) %MON dynstat_wvel_min             =  -7.0088134871974E-04
(PID.TID 0000.0001) %MON dynstat_wvel_mean            =   2.2365928733879E-12
(PID.TID 0000.0001) %MON dynstat_wvel_sd              =   4.1272977737559E-05
(PID.TID 0000.0001) %MON dynstat_wvel_del2            =   1.3131609814888E-06
(PID.TID 0000.0001) %MON dynstat_theta_max            =  -2.1009970415360E+00
(PID.TID 0000.0001) %MON dynstat_theta_min            =  -2.2554199971908E+00
(PID.TID 0000.0001) %MON dynstat_theta_mean           =  -2.1296864755221E+00
(PID.TID 0000.0001) %MON dynstat_theta_sd             =   2.9677837427243E-02
(PID.TID 0000.0001) %MON dynstat_theta_del2           =   3.4838522491402E-05
(PID.TID 0000.0001) %MON dynstat_salt_max             =   3.4499936097622E+01
(PID.TID 0000.0001) %MON dynstat_salt_min             =   3.4454965088758E+01
(PID.TID 0000.0001) %MON dynstat_salt_mean            =   3.4489415870537E+01
(PID.TID 0000.0001) %MON dynstat_salt_sd              =   1.1071102064830E-02
(PID.TID 0000.0001) %MON dynstat_salt_del2            =   2.5130209725669E-06
(PID.TID 0000.0001) %MON trAdv_CFL_u_max              =   4.8754921399752E-03
(PID.TID 0000.0001) %MON trAdv_CFL_v_max              =   5.0099988190953E-03
(PID.TID 0000.0001) %MON trAdv_CFL_w_max              =   5.0973188997799E-03
(PID.TID 0000.0001) %MON advcfl_uvel_max              =   3.7074439099907E-03
(PID.TID 0000.0001) %MON advcfl_vvel_max              =   5.0099988190953E-03
(PID.TID 0000.0001) %MON advcfl_wvel_max              =   5.0973188997799E-03
(PID.TID 0000.0001) %MON advcfl_W_hf_max              =   7.0086372126714E-03
(PID.TID 0000.0001) %MON pe_b_mean                    =   9.0359278012278E-05
(PID.TID 0000.0001) %MON ke_max                       =   3.2106918900157E-05
(PID.TID 0000.0001) %MON ke_mean                      =   1.1969368363545E-06
(PID.TID 0000.0001) %MON ke_vol                       =   1.8654725220387E+09
(PID.TID 0000.0001) %MON vort_r_min                   =  -1.1966924531541E-04
(PID.TID 0000.0001) %MON vort_r_max                   =   1.2694118915472E-04
(PID.TID 0000.0001) %MON vort_a_mean                  =   1.0000782634673E-04
(PID.TID 0000.0001) %MON vort_a_sd                    =   1.4995824690517E-05
(PID.TID 0000.0001) %MON vort_p_mean                  =   1.1991916022492E-04
(PID.TID 0000.0001) %MON vort_p_sd                    =   7.1720152790819E-05
(PID.TID 0000.0001) %MON surfExpan_theta_mean         =  -1.0112495885226E-13
(PID.TID 0000.0001) %MON surfExpan_salt_mean          =  -4.2882485906822E-14
(PID.TID 0000.0001) // =======================================================
(PID.TID 0000.0001) // End MONITOR dynamic field statistics
(PID.TID 0000.0001) // =======================================================
(PID.TID 0000.0001) // =======================================================
(PID.TID 0000.0001) // Begin MONITOR dynamic field statistics
(PID.TID 0000.0001) // =======================================================
(PID.TID 0000.0001) %MON time_tsnumber                =                369360
(PID.TID 0000.0001) %MON time_secondsf                =   2.9548800000000E+07
(PID.TID 0000.0001) %MON dynstat_eta_max              =   2.1145495333519E-01
(PID.TID 0000.0001) %MON dynstat_eta_min              =  -1.3428881238820E-01
(PID.TID 0000.0001) %MON dynstat_eta_mean             =   2.4606444831328E-16
(PID.TID 0000.0001) %MON dynstat_eta_sd               =   6.2657331968610E-02
(PID.TID 0000.0001) %MON dynstat_eta_del2             =   1.3645772083889E-03
(PID.TID 0000.0001) %MON dynstat_uvel_max             =   9.8368391286644E-03
(PID.TID 0000.0001) %MON dynstat_uvel_min             =  -1.0923913876803E-02
(PID.TID 0000.0001) %MON dynstat_uvel_mean            =   3.8672408014814E-12
(PID.TID 0000.0001) %MON dynstat_uvel_sd              =   1.5117782348016E-03
(PID.TID 0000.0001) %MON dynstat_uvel_del2            =   1.2195943929681E-05
(PID.TID 0000.0001) %MON dynstat_vvel_max             =   3.7961723763294E-03
(PID.TID 0000.0001) %MON dynstat_vvel_min             =  -4.9106587514631E-03
(PID.TID 0000.0001) %MON dynstat_vvel_mean            =   3.3606767228984E-12
(PID.TID 0000.0001) %MON dynstat_vvel_sd              =   4.7863382952904E-04
(PID.TID 0000.0001) %MON dynstat_vvel_del2            =   1.0918846328084E-05
(PID.TID 0000.0001) %MON dynstat_wvel_max             =   8.0435031326670E-04
(PID.TID 0000.0001) %MON dynstat_wvel_min             =  -1.5905342113061E-03
(PID.TID 0000.0001) %MON dynstat_wvel_mean            =   2.0284009011906E-12
(PID.TID 0000.0001) %MON dynstat_wvel_sd              =   5.5667936691034E-05
(PID.TID 0000.0001) %MON dynstat_wvel_del2            =   1.9073677991037E-06
(PID.TID 0000.0001) %MON dynstat_theta_max            =  -2.1009990099553E+00
(PID.TID 0000.0001) %MON dynstat_theta_min            =  -2.2551629034024E+00
(PID.TID 0000.0001) %MON dynstat_theta_mean           =  -2.1298091939197E+00
(PID.TID 0000.0001) %MON dynstat_theta_sd             =   2.9759249181703E-02
(PID.TID 0000.0001) %MON dynstat_theta_del2           =   3.5911768109927E-05
(PID.TID 0000.0001) %MON dynstat_salt_max             =   3.4499935861066E+01
(PID.TID 0000.0001) %MON dynstat_salt_min             =   3.4454827814864E+01
(PID.TID 0000.0001) %MON dynstat_salt_mean            =   3.4489379878195E+01
(PID.TID 0000.0001) %MON dynstat_salt_sd              =   1.1093635632456E-02
(PID.TID 0000.0001) %MON dynstat_salt_del2            =   2.5424046343947E-06
(PID.TID 0000.0001) %MON trAdv_CFL_u_max              =   5.0155137566205E-03
(PID.TID 0000.0001) %MON trAdv_CFL_v_max              =   4.6651258138899E-03
(PID.TID 0000.0001) %MON trAdv_CFL_w_max              =   1.1567521536772E-02
(PID.TID 0000.0001) %MON advcfl_uvel_max              =   3.7886449950977E-03
(PID.TID 0000.0001) %MON advcfl_vvel_max              =   4.6651258138899E-03
(PID.TID 0000.0001) %MON advcfl_wvel_max              =   1.1567521536772E-02
(PID.TID 0000.0001) %MON advcfl_W_hf_max              =   1.1567521536772E-02
(PID.TID 0000.0001) %MON pe_b_mean                    =   9.0353285965112E-05
(PID.TID 0000.0001) %MON ke_max                       =   3.3885007772361E-05
(PID.TID 0000.0001) %MON ke_mean                      =   1.1975457429248E-06
(PID.TID 0000.0001) %MON ke_vol                       =   1.8654725220387E+09
(PID.TID 0000.0001) %MON vort_r_min                   =  -1.2251427761216E-04
(PID.TID 0000.0001) %MON vort_r_max                   =   1.2972147728703E-04
(PID.TID 0000.0001) %MON vort_a_mean                  =   1.0000782634673E-04
(PID.TID 0000.0001) %MON vort_a_sd                    =   1.4933383676995E-05
(PID.TID 0000.0001) %MON vort_p_mean                  =   1.1991916022492E-04
(PID.TID 0000.0001) %MON vort_p_sd                    =   7.1802286607130E-05
(PID.TID 0000.0001) %MON surfExpan_theta_mean         =  -1.0069468605086E-13
(PID.TID 0000.0001) %MON surfExpan_salt_mean          =  -4.0333767128246E-14
(PID.TID 0000.0001) // =======================================================
(PID.TID 0000.0001) // End MONITOR dynamic field statistics
(PID.TID 0000.0001) // =======================================================
(PID.TID 0000.0001) // =======================================================
(PID.TID 0000.0001) // Begin MONITOR dynamic field statistics
(PID.TID 0000.0001) // =======================================================
(PID.TID 0000.0001) %MON time_tsnumber                =                372600
(PID.TID 0000.0001) %MON time_secondsf                =   2.9808000000000E+07
(PID.TID 0000.0001) %MON dynstat_eta_max              =   2.1145059227389E-01
(PID.TID 0000.0001) %MON dynstat_eta_min              =  -1.3428301075332E-01
(PID.TID 0000.0001) %MON dynstat_eta_mean             =   2.4661927232300E-16
(PID.TID 0000.0001) %MON dynstat_eta_sd               =   6.2655180148337E-02
(PID.TID 0000.0001) %MON dynstat_eta_del2             =   1.3645394516851E-03
(PID.TID 0000.0001) %MON dynstat_uvel_max             =   9.7404877408093E-03
(PID.TID 0000.0001) %MON dynstat_uvel_min             =  -1.3217452099138E-02
(PID.TID 0000.0001) %MON dynstat_uvel_mean            =   7.7964762735715E-12
(PID.TID 0000.0001) %MON dynstat_uvel_sd              =   1.5289725120634E-03
(PID.TID 0000.0001) %MON dynstat_uvel_del2            =   1.2131362766648E-05
(PID.TID 0000.0001) %MON dynstat_vvel_max             =   4.0517978391144E-03
(PID.TID 0000.0001) %MON dynstat_vvel_min             =  -5.6813828121412E-03
(PID.TID 0000.0001) %MON dynstat_vvel_mean            =   3.0378144656665E-12
(PID.TID 0000.0001) %MON dynstat_vvel_sd              =   4.6181812141235E-04
(PID.TID 0000.0001) %MON dynstat_vvel_del2            =   9.9700775789877E-06
(PID.TID 0000.0001) %MON dynstat_wvel_max             =   6.8652129198497E-04
(PID.TID 0000.0001) %MON dynstat_wvel_min             =  -6.8867084295905E-04
(PID.TID 0000.0001) %MON dynstat_wvel_mean            =   2.2826901627545E-12
(PID.TID 0000.0001) %MON dynstat_wvel_sd              =   4.3925632610235E-05
(PID.TID 0000.0001) %MON dynstat_wvel_del2            =   1.4190688743392E-06
(PID.TID 0000.0001) %MON dynstat_theta_max            =  -2.1010071946925E+00
(PID.TID 0000.0001) %MON dynstat_theta_min            =  -2.2557680902650E+00
(PID.TID 0000.0001) %MON dynstat_theta_mean           =  -2.1299321882713E+00
(PID.TID 0000.0001) %MON dynstat_theta_sd             =   2.9843502622065E-02
(PID.TID 0000.0001) %MON dynstat_theta_del2           =   3.7434497190932E-05
(PID.TID 0000.0001) %MON dynstat_salt_max             =   3.4499934073796E+01
(PID.TID 0000.0001) %MON dynstat_salt_min             =   3.4454907533649E+01
(PID.TID 0000.0001) %MON dynstat_salt_mean            =   3.4489343772075E+01
(PID.TID 0000.0001) %MON dynstat_salt_sd              =   1.1116478249305E-02
(PID.TID 0000.0001) %MON dynstat_salt_del2            =   2.5396298969078E-06
(PID.TID 0000.0001) %MON trAdv_CFL_u_max              =   5.0586241231746E-03
(PID.TID 0000.0001) %MON trAdv_CFL_v_max              =   5.3973136715342E-03
(PID.TID 0000.0001) %MON trAdv_CFL_w_max              =   5.0085152215204E-03
(PID.TID 0000.0001) %MON advcfl_uvel_max              =   4.5840926894967E-03
(PID.TID 0000.0001) %MON advcfl_vvel_max              =   5.3973136715342E-03
(PID.TID 0000.0001) %MON advcfl_wvel_max              =   5.0085152215204E-03
(PID.TID 0000.0001) %MON advcfl_W_hf_max              =   6.9432856332872E-03
(PID.TID 0000.0001) %MON pe_b_mean                    =   9.0346862704148E-05
(PID.TID 0000.0001) %MON ke_max                       =   5.3136753180870E-05
(PID.TID 0000.0001) %MON ke_mean                      =   1.2155274828922E-06
(PID.TID 0000.0001) %MON ke_vol                       =   1.8654725220387E+09
(PID.TID 0000.0001) %MON vort_r_min                   =  -1.5695724367726E-04
(PID.TID 0000.0001) %MON vort_r_max                   =   1.5695724367726E-04
(PID.TID 0000.0001) %MON vort_a_mean                  =   1.0000782634673E-04
(PID.TID 0000.0001) %MON vort_a_sd                    =   1.5292003933617E-05
(PID.TID 0000.0001) %MON vort_p_mean                  =   1.1991916022492E-04
(PID.TID 0000.0001) %MON vort_p_sd                    =   7.2361860209778E-05
(PID.TID 0000.0001) %MON surfExpan_theta_mean         =  -9.8224272826043E-14
(PID.TID 0000.0001) %MON surfExpan_salt_mean          =  -4.2196866340281E-14
(PID.TID 0000.0001) // =======================================================
(PID.TID 0000.0001) // End MONITOR dynamic field statistics
(PID.TID 0000.0001) // =======================================================
(PID.TID 0000.0001) // =======================================================
(PID.TID 0000.0001) // Begin MONITOR dynamic field statistics
(PID.TID 0000.0001) // =======================================================
(PID.TID 0000.0001) %MON time_tsnumber                =                375840
(PID.TID 0000.0001) %MON time_secondsf                =   3.0067200000000E+07
(PID.TID 0000.0001) %MON dynstat_eta_max              =   2.1144590095582E-01
(PID.TID 0000.0001) %MON dynstat_eta_min              =  -1.3428039521050E-01
(PID.TID 0000.0001) %MON dynstat_eta_mean             =   2.3663244014794E-16
(PID.TID 0000.0001) %MON dynstat_eta_sd               =   6.2653132944023E-02
(PID.TID 0000.0001) %MON dynstat_eta_del2             =   1.3645045150295E-03
(PID.TID 0000.0001) %MON dynstat_uvel_max             =   9.7038880211725E-03
(PID.TID 0000.0001) %MON dynstat_uvel_min             =  -1.1649025811668E-02
(PID.TID 0000.0001) %MON dynstat_uvel_mean            =   1.3559417474594E-12
(PID.TID 0000.0001) %MON dynstat_uvel_sd              =   1.5070398125724E-03
(PID.TID 0000.0001) %MON dynstat_uvel_del2            =   1.1340661536964E-05
(PID.TID 0000.0001) %MON dynstat_vvel_max             =   4.0329341984464E-03
(PID.TID 0000.0001) %MON dynstat_vvel_min             =  -5.8012124230740E-03
(PID.TID 0000.0001) %MON dynstat_vvel_mean            =   2.8976339435628E-12
(PID.TID 0000.0001) %MON dynstat_vvel_sd              =   4.6706001798943E-04
(PID.TID 0000.0001) %MON dynstat_vvel_del2            =   1.0071979701659E-05
(PID.TID 0000.0001) %MON dynstat_wvel_max             =   5.1901926292432E-04
(PID.TID 0000.0001) %MON dynstat_wvel_min             =  -6.3774727814150E-04
(PID.TID 0000.0001) %MON dynstat_wvel_mean            =   2.0505558677841E-12
(PID.TID 0000.0001) %MON dynstat_wvel_sd              =   4.1730809005418E-05
(PID.TID 0000.0001) %MON dynstat_wvel_del2            =   1.3411912158965E-06
(PID.TID 0000.0001) %MON dynstat_theta_max            =  -2.1010119965318E+00
(PID.TID 0000.0001) %MON dynstat_theta_min            =  -2.2560917754970E+00
(PID.TID 0000.0001) %MON dynstat_theta_mean           =  -2.1300555406145E+00
(PID.TID 0000.0001) %MON dynstat_theta_sd             =   2.9923406628586E-02
(PID.TID 0000.0001) %MON dynstat_theta_del2           =   3.8536717922771E-05
(PID.TID 0000.0001) %MON dynstat_salt_max             =   3.4499933519668E+01
(PID.TID 0000.0001) %MON dynstat_salt_min             =   3.4454979038763E+01
(PID.TID 0000.0001) %MON dynstat_salt_mean            =   3.4489307518539E+01
(PID.TID 0000.0001) %MON dynstat_salt_sd              =   1.1139651007891E-02
(PID.TID 0000.0001) %MON dynstat_salt_del2            =   2.6563511868686E-06
(PID.TID 0000.0001) %MON trAdv_CFL_u_max              =   4.9981166947162E-03
(PID.TID 0000.0001) %MON trAdv_CFL_v_max              =   5.5111518019203E-03
(PID.TID 0000.0001) %MON trAdv_CFL_w_max              =   4.6700856187942E-03
(PID.TID 0000.0001) %MON advcfl_uvel_max              =   4.0401291915033E-03
(PID.TID 0000.0001) %MON advcfl_vvel_max              =   5.5111518019203E-03
(PID.TID 0000.0001) %MON advcfl_wvel_max              =   4.6381620228472E-03
(PID.TID 0000.0001) %MON advcfl_W_hf_max              =   6.9032374287148E-03
(PID.TID 0000.0001) %MON pe_b_mean                    =   9.0340673334802E-05
(PID.TID 0000.0001) %MON ke_max                       =   3.5403054124028E-05
(PID.TID 0000.0001) %MON ke_mean                      =   1.1857978744427E-06
(PID.TID 0000.0001) %MON ke_vol                       =   1.8654725220387E+09
(PID.TID 0000.0001) %MON vort_r_min                   =  -1.3833218151355E-04
(PID.TID 0000.0001) %MON vort_r_max                   =   1.3833218151355E-04
(PID.TID 0000.0001) %MON vort_a_mean                  =   1.0000782634673E-04
(PID.TID 0000.0001) %MON vort_a_sd                    =   1.5035147094797E-05
(PID.TID 0000.0001) %MON vort_p_mean                  =   1.1991916022492E-04
(PID.TID 0000.0001) %MON vort_p_sd                    =   7.2285300423725E-05
(PID.TID 0000.0001) %MON surfExpan_theta_mean         =  -1.0555059064424E-13
(PID.TID 0000.0001) %MON surfExpan_salt_mean          =  -4.2377964009749E-14
(PID.TID 0000.0001) // =======================================================
(PID.TID 0000.0001) // End MONITOR dynamic field statistics
(PID.TID 0000.0001) // =======================================================
(PID.TID 0000.0001) // =======================================================
(PID.TID 0000.0001) // Begin MONITOR dynamic field statistics
(PID.TID 0000.0001) // =======================================================
(PID.TID 0000.0001) %MON time_tsnumber                =                379080
(PID.TID 0000.0001) %MON time_secondsf                =   3.0326400000000E+07
(PID.TID 0000.0001) %MON dynstat_eta_max              =   2.1144120569171E-01
(PID.TID 0000.0001) %MON dynstat_eta_min              =  -1.3427502378206E-01
(PID.TID 0000.0001) %MON dynstat_eta_mean             =   2.3774208816739E-16
(PID.TID 0000.0001) %MON dynstat_eta_sd               =   6.2651014009479E-02
(PID.TID 0000.0001) %MON dynstat_eta_del2             =   1.3644596397809E-03
(PID.TID 0000.0001) %MON dynstat_uvel_max             =   9.9005444953114E-03
(PID.TID 0000.0001) %MON dynstat_uvel_min             =  -1.1174896658253E-02
(PID.TID 0000.0001) %MON dynstat_uvel_mean            =  -1.0580719614538E-11
(PID.TID 0000.0001) %MON dynstat_uvel_sd              =   1.5154221399175E-03
(PID.TID 0000.0001) %MON dynstat_uvel_del2            =   1.2604358165098E-05
(PID.TID 0000.0001) %MON dynstat_vvel_max             =   4.0631744155378E-03
(PID.TID 0000.0001) %MON dynstat_vvel_min             =  -5.3038152025337E-03
(PID.TID 0000.0001) %MON dynstat_vvel_mean            =   2.5541104684997E-12
(PID.TID 0000.0001) %MON dynstat_vvel_sd              =   4.8480350660371E-04
(PID.TID 0000.0001) %MON dynstat_vvel_del2            =   1.0807995078248E-05
(PID.TID 0000.0001) %MON dynstat_wvel_max             =   7.1113079468455E-04
(PID.TID 0000.0001) %MON dynstat_wvel_min             =  -8.2630116420961E-04
(PID.TID 0000.0001) %MON dynstat_wvel_mean            =   2.4629133813890E-12
(PID.TID 0000.0001) %MON dynstat_wvel_sd              =   5.0501002853681E-05
(PID.TID 0000.0001) %MON dynstat_wvel_del2            =   1.5991533218008E-06
(PID.TID 0000.0001) %MON dynstat_theta_max            =  -2.1010104543152E+00
(PID.TID 0000.0001) %MON dynstat_theta_min            =  -2.2567550933237E+00
(PID.TID 0000.0001) %MON dynstat_theta_mean           =  -2.1301774192489E+00
(PID.TID 0000.0001) %MON dynstat_theta_sd             =   3.0005381045080E-02
(PID.TID 0000.0001) %MON dynstat_theta_del2           =   3.8041065170868E-05
(PID.TID 0000.0001) %MON dynstat_salt_max             =   3.4499933906429E+01
(PID.TID 0000.0001) %MON dynstat_salt_min             =   3.4454584292612E+01
(PID.TID 0000.0001) %MON dynstat_salt_mean            =   3.4489271872136E+01
(PID.TID 0000.0001) %MON dynstat_salt_sd              =   1.1162575109855E-02
(PID.TID 0000.0001) %MON dynstat_salt_del2            =   2.7035151049163E-06
(PID.TID 0000.0001) %MON trAdv_CFL_u_max              =   5.1169436975245E-03
(PID.TID 0000.0001) %MON trAdv_CFL_v_max              =   5.0386244424070E-03
(PID.TID 0000.0001) %MON trAdv_CFL_w_max              =   6.0094630124335E-03
(PID.TID 0000.0001) %MON advcfl_uvel_max              =   3.8756911462777E-03
(PID.TID 0000.0001) %MON advcfl_vvel_max              =   5.0386244424070E-03
(PID.TID 0000.0001) %MON advcfl_wvel_max              =   6.0094630124335E-03
(PID.TID 0000.0001) %MON advcfl_W_hf_max              =   6.7581836440560E-03
(PID.TID 0000.0001) %MON pe_b_mean                    =   9.0334273581485E-05
(PID.TID 0000.0001) %MON ke_max                       =   3.5130083767800E-05
(PID.TID 0000.0001) %MON ke_mean                      =   1.2054889624499E-06
(PID.TID 0000.0001) %MON ke_vol                       =   1.8654725220387E+09
(PID.TID 0000.0001) %MON vort_r_min                   =  -1.2540472733882E-04
(PID.TID 0000.0001) %MON vort_r_max                   =   1.3270189781675E-04
(PID.TID 0000.0001) %MON vort_a_mean                  =   1.0000782634673E-04
(PID.TID 0000.0001) %MON vort_a_sd                    =   1.5376555555015E-05
(PID.TID 0000.0001) %MON vort_p_mean                  =   1.1991916022492E-04
(PID.TID 0000.0001) %MON vort_p_sd                    =   7.2321741677415E-05
(PID.TID 0000.0001) %MON surfExpan_theta_mean         =  -9.6225117993139E-14
(PID.TID 0000.0001) %MON surfExpan_salt_mean          =  -4.4739340695883E-14
(PID.TID 0000.0001) // =======================================================
(PID.TID 0000.0001) // End MONITOR dynamic field statistics
(PID.TID 0000.0001) // =======================================================
(PID.TID 0000.0001) // =======================================================
(PID.TID 0000.0001) // Begin MONITOR dynamic field statistics
(PID.TID 0000.0001) // =======================================================
(PID.TID 0000.0001) %MON time_tsnumber                =                382320
(PID.TID 0000.0001) %MON time_secondsf                =   3.0585600000000E+07
(PID.TID 0000.0001) %MON dynstat_eta_max              =   2.1143687216517E-01
(PID.TID 0000.0001) %MON dynstat_eta_min              =  -1.3426978847792E-01
(PID.TID 0000.0001) %MON dynstat_eta_mean             =   2.5189010041539E-16
(PID.TID 0000.0001) %MON dynstat_eta_sd               =   6.2648946964651E-02
(PID.TID 0000.0001) %MON dynstat_eta_del2             =   1.3644219131840E-03
(PID.TID 0000.0001) %MON dynstat_uvel_max             =   9.8168592432106E-03
(PID.TID 0000.0001) %MON dynstat_uvel_min             =  -1.0864751666686E-02
(PID.TID 0000.0001) %MON dynstat_uvel_mean            =   2.3326510789911E-11
(PID.TID 0000.0001) %MON dynstat_uvel_sd              =   1.4977540263068E-03
(PID.TID 0000.0001) %MON dynstat_uvel_del2            =   1.1716102843847E-05
(PID.TID 0000.0001) %MON dynstat_vvel_max             =   4.0825721799281E-03
(PID.TID 0000.0001) %MON dynstat_vvel_min             =  -5.2110560986147E-03
(PID.TID 0000.0001) %MON dynstat_vvel_mean            =   3.9032244284092E-12
(PID.TID 0000.0001) %MON dynstat_vvel_sd              =   4.6077149707859E-04
(PID.TID 0000.0001) %MON dynstat_vvel_del2            =   1.0378124030489E-05
(PID.TID 0000.0001) %MON dynstat_wvel_max             =   5.9401540901426E-04
(PID.TID 0000.0001) %MON dynstat_wvel_min             =  -6.9435316366950E-04
(PID.TID 0000.0001) %MON dynstat_wvel_mean            =   1.9184252154920E-12
(PID.TID 0000.0001) %MON dynstat_wvel_sd              =   4.1860328613694E-05
(PID.TID 0000.0001) %MON dynstat_wvel_del2            =   1.3994095406368E-06
(PID.TID 0000.0001) %MON dynstat_theta_max            =  -2.1010146751501E+00
(PID.TID 0000.0001) %MON dynstat_theta_min            =  -2.2567824526870E+00
(PID.TID 0000.0001) %MON dynstat_theta_mean           =  -2.1302984649488E+00
(PID.TID 0000.0001) %MON dynstat_theta_sd             =   3.0079534747875E-02
(PID.TID 0000.0001) %MON dynstat_theta_del2           =   3.7418963220407E-05
(PID.TID 0000.0001) %MON dynstat_salt_max             =   3.4499933255890E+01
(PID.TID 0000.0001) %MON dynstat_salt_min             =   3.4454589764587E+01
(PID.TID 0000.0001) %MON dynstat_salt_mean            =   3.4489236568766E+01
(PID.TID 0000.0001) %MON dynstat_salt_sd              =   1.1185567693165E-02
(PID.TID 0000.0001) %MON dynstat_salt_del2            =   2.6625547193638E-06
(PID.TID 0000.0001) %MON trAdv_CFL_u_max              =   4.9609243758919E-03
(PID.TID 0000.0001) %MON trAdv_CFL_v_max              =   4.9505032936840E-03
(PID.TID 0000.0001) %MON trAdv_CFL_w_max              =   5.0498411903237E-03
(PID.TID 0000.0001) %MON advcfl_uvel_max              =   3.7681262859808E-03
(PID.TID 0000.0001) %MON advcfl_vvel_max              =   4.9505032936840E-03
(PID.TID 0000.0001) %MON advcfl_wvel_max              =   5.0498411903237E-03
(PID.TID 0000.0001) %MON advcfl_W_hf_max              =   6.9527069304295E-03
(PID.TID 0000.0001) %MON pe_b_mean                    =   9.0328057836543E-05
(PID.TID 0000.0001) %MON ke_max                       =   3.3191665348385E-05
(PID.TID 0000.0001) %MON ke_mean                      =   1.1698195630353E-06
(PID.TID 0000.0001) %MON ke_vol                       =   1.8654725220387E+09
(PID.TID 0000.0001) %MON vort_r_min                   =  -1.2536899569300E-04
(PID.TID 0000.0001) %MON vort_r_max                   =   1.2901892604190E-04
(PID.TID 0000.0001) %MON vort_a_mean                  =   1.0000782634673E-04
(PID.TID 0000.0001) %MON vort_a_sd                    =   1.4972559550622E-05
(PID.TID 0000.0001) %MON vort_p_mean                  =   1.1991916022492E-04
(PID.TID 0000.0001) %MON vort_p_sd                    =   7.1789227459399E-05
(PID.TID 0000.0001) %MON surfExpan_theta_mean         =  -1.0812412418095E-13
(PID.TID 0000.0001) %MON surfExpan_salt_mean          =  -4.1440688387689E-14
(PID.TID 0000.0001) // =======================================================
(PID.TID 0000.0001) // End MONITOR dynamic field statistics
(PID.TID 0000.0001) // =======================================================
(PID.TID 0000.0001) // =======================================================
(PID.TID 0000.0001) // Begin MONITOR dynamic field statistics
(PID.TID 0000.0001) // =======================================================
(PID.TID 0000.0001) %MON time_tsnumber                =                385560
(PID.TID 0000.0001) %MON time_secondsf                =   3.0844800000000E+07
(PID.TID 0000.0001) %MON dynstat_eta_max              =   2.1143224257908E-01
(PID.TID 0000.0001) %MON dynstat_eta_min              =  -1.3426923426943E-01
(PID.TID 0000.0001) %MON dynstat_eta_mean             =   2.4523221229869E-16
(PID.TID 0000.0001) %MON dynstat_eta_sd               =   6.2646952918343E-02
(PID.TID 0000.0001) %MON dynstat_eta_del2             =   1.3643742582283E-03
(PID.TID 0000.0001) %MON dynstat_uvel_max             =   9.8272826920636E-03
(PID.TID 0000.0001) %MON dynstat_uvel_min             =  -1.3971731134807E-02
(PID.TID 0000.0001) %MON dynstat_uvel_mean            =  -4.6540914987378E-13
(PID.TID 0000.0001) %MON dynstat_uvel_sd              =   1.4791081337725E-03
(PID.TID 0000.0001) %MON dynstat_uvel_del2            =   1.1508543222110E-05
(PID.TID 0000.0001) %MON dynstat_vvel_max             =   3.8437533104488E-03
(PID.TID 0000.0001) %MON dynstat_vvel_min             =  -5.4230000832867E-03
(PID.TID 0000.0001) %MON dynstat_vvel_mean            =   3.1198077373017E-12
(PID.TID 0000.0001) %MON dynstat_vvel_sd              =   4.4925087075063E-04
(PID.TID 0000.0001) %MON dynstat_vvel_del2            =   1.0335229119600E-05
(PID.TID 0000.0001) %MON dynstat_wvel_max             =   6.1571781506122E-04
(PID.TID 0000.0001) %MON dynstat_wvel_min             =  -7.1480413524661E-04
(PID.TID 0000.0001) %MON dynstat_wvel_mean            =   2.1234181567835E-12
(PID.TID 0000.0001) %MON dynstat_wvel_sd              =   4.4703670812058E-05
(PID.TID 0000.0001) %MON dynstat_wvel_del2            =   1.4361528309013E-06
(PID.TID 0000.0001) %MON dynstat_theta_max            =  -2.1010222517978E+00
(PID.TID 0000.0001) %MON dynstat_theta_min            =  -2.2566328590775E+00
(PID.TID 0000.0001) %MON dynstat_theta_mean           =  -2.1304205216734E+00
(PID.TID 0000.0001) %MON dynstat_theta_sd             =   3.0165188101866E-02
(PID.TID 0000.0001) %MON dynstat_theta_del2           =   3.5369870081012E-05
(PID.TID 0000.0001) %MON dynstat_salt_max             =   3.4499932259135E+01
(PID.TID 0000.0001) %MON dynstat_salt_min             =   3.4454569397642E+01
(PID.TID 0000.0001) %MON dynstat_salt_mean            =   3.4489200848781E+01
(PID.TID 0000.0001) %MON dynstat_salt_sd              =   1.1209063548150E-02
(PID.TID 0000.0001) %MON dynstat_salt_del2            =   2.4541528754636E-06
(PID.TID 0000.0001) %MON trAdv_CFL_u_max              =   4.8889571409530E-03
(PID.TID 0000.0001) %MON trAdv_CFL_v_max              =   5.1518500791223E-03
(PID.TID 0000.0001) %MON trAdv_CFL_w_max              =   5.1985755290663E-03
(PID.TID 0000.0001) %MON advcfl_uvel_max              =   4.8456926550055E-03
(PID.TID 0000.0001) %MON advcfl_vvel_max              =   5.1518500791223E-03
(PID.TID 0000.0001) %MON advcfl_wvel_max              =   5.1985755290663E-03
(PID.TID 0000.0001) %MON advcfl_W_hf_max              =   6.8960368995987E-03
(PID.TID 0000.0001) %MON pe_b_mean                    =   9.0322007260568E-05
(PID.TID 0000.0001) %MON ke_max                       =   5.1943585363693E-05
(PID.TID 0000.0001) %MON ke_mean                      =   1.1385354639706E-06
(PID.TID 0000.0001) %MON ke_vol                       =   1.8654725220387E+09
(PID.TID 0000.0001) %MON vort_r_min                   =  -1.6591430722583E-04
(PID.TID 0000.0001) %MON vort_r_max                   =   1.6591430722583E-04
(PID.TID 0000.0001) %MON vort_a_mean                  =   1.0000782634673E-04
(PID.TID 0000.0001) %MON vort_a_sd                    =   1.4986780176893E-05
(PID.TID 0000.0001) %MON vort_p_mean                  =   1.1991916022492E-04
(PID.TID 0000.0001) %MON vort_p_sd                    =   7.1222414690857E-05
(PID.TID 0000.0001) %MON surfExpan_theta_mean         =  -9.2629120655146E-14
(PID.TID 0000.0001) %MON surfExpan_salt_mean          =  -4.1862865325349E-14
(PID.TID 0000.0001) // =======================================================
(PID.TID 0000.0001) // End MONITOR dynamic field statistics
(PID.TID 0000.0001) // =======================================================
(PID.TID 0000.0001) // =======================================================
(PID.TID 0000.0001) // Begin MONITOR dynamic field statistics
(PID.TID 0000.0001) // =======================================================
(PID.TID 0000.0001) %MON time_tsnumber                =                388800
(PID.TID 0000.0001) %MON time_secondsf                =   3.1104000000000E+07
(PID.TID 0000.0001) %MON dynstat_eta_max              =   2.1142780809046E-01
(PID.TID 0000.0001) %MON dynstat_eta_min              =  -1.3426229528480E-01
(PID.TID 0000.0001) %MON dynstat_eta_mean             =   2.3302608408473E-16
(PID.TID 0000.0001) %MON dynstat_eta_sd               =   6.2644964061082E-02
(PID.TID 0000.0001) %MON dynstat_eta_del2             =   1.3643331969475E-03
(PID.TID 0000.0001) %MON dynstat_uvel_max             =   9.6891855363222E-03
(PID.TID 0000.0001) %MON dynstat_uvel_min             =  -1.0985082778709E-02
(PID.TID 0000.0001) %MON dynstat_uvel_mean            =  -5.1056921089440E-12
(PID.TID 0000.0001) %MON dynstat_uvel_sd              =   1.4532058168807E-03
(PID.TID 0000.0001) %MON dynstat_uvel_del2            =   1.0840958300508E-05
(PID.TID 0000.0001) %MON dynstat_vvel_max             =   3.9535152363573E-03
(PID.TID 0000.0001) %MON dynstat_vvel_min             =  -5.1637078993867E-03
(PID.TID 0000.0001) %MON dynstat_vvel_mean            =   3.3847145507789E-12
(PID.TID 0000.0001) %MON dynstat_vvel_sd              =   4.2326057708895E-04
(PID.TID 0000.0001) %MON dynstat_vvel_del2            =   9.8132316946180E-06
(PID.TID 0000.0001) %MON dynstat_wvel_max             =   6.2010127726281E-04
(PID.TID 0000.0001) %MON dynstat_wvel_min             =  -6.2035021109367E-04
(PID.TID 0000.0001) %MON dynstat_wvel_mean            =   2.1568056280957E-12
(PID.TID 0000.0001) %MON dynstat_wvel_sd              =   3.8918015633816E-05
(PID.TID 0000.0001) %MON dynstat_wvel_del2            =   1.1987758968580E-06
(PID.TID 0000.0001) %MON dynstat_theta_max            =  -2.1010345045967E+00
(PID.TID 0000.0001) %MON dynstat_theta_min            =  -2.2569530458798E+00
(PID.TID 0000.0001) %MON dynstat_theta_mean           =  -2.1305419119735E+00
(PID.TID 0000.0001) %MON dynstat_theta_sd             =   3.0254089839023E-02
(PID.TID 0000.0001) %MON dynstat_theta_del2           =   3.5776620560085E-05
(PID.TID 0000.0001) %MON dynstat_salt_max             =   3.4499930545323E+01
(PID.TID 0000.0001) %MON dynstat_salt_min             =   3.4454150860776E+01
(PID.TID 0000.0001) %MON dynstat_salt_mean            =   3.4489165403312E+01
(PID.TID 0000.0001) %MON dynstat_salt_sd              =   1.1232201996823E-02
(PID.TID 0000.0001) %MON dynstat_salt_del2            =   2.4090359488465E-06
(PID.TID 0000.0001) %MON trAdv_CFL_u_max              =   4.9786361325849E-03
(PID.TID 0000.0001) %MON trAdv_CFL_v_max              =   4.9055225044174E-03
(PID.TID 0000.0001) %MON trAdv_CFL_w_max              =   4.7090589395008E-03
(PID.TID 0000.0001) %MON advcfl_uvel_max              =   3.8098596674830E-03
(PID.TID 0000.0001) %MON advcfl_vvel_max              =   4.9055225044174E-03
(PID.TID 0000.0001) %MON advcfl_wvel_max              =   4.5116378988630E-03
(PID.TID 0000.0001) %MON advcfl_W_hf_max              =   7.0169349388728E-03
(PID.TID 0000.0001) %MON pe_b_mean                    =   9.0315992275141E-05
(PID.TID 0000.0001) %MON ke_max                       =   3.3727007477335E-05
(PID.TID 0000.0001) %MON ke_mean                      =   1.0920021971376E-06
(PID.TID 0000.0001) %MON ke_vol                       =   1.8654725220387E+09
(PID.TID 0000.0001) %MON vort_r_min                   =  -1.2309156325071E-04
(PID.TID 0000.0001) %MON vort_r_max                   =   1.3044785799716E-04
(PID.TID 0000.0001) %MON vort_a_mean                  =   1.0000782634673E-04
(PID.TID 0000.0001) %MON vort_a_sd                    =   1.4630198719640E-05
(PID.TID 0000.0001) %MON vort_p_mean                  =   1.1991916022492E-04
(PID.TID 0000.0001) %MON vort_p_sd                    =   7.0750532289359E-05
(PID.TID 0000.0001) %MON surfExpan_theta_mean         =  -1.0091422316191E-13
(PID.TID 0000.0001) %MON surfExpan_salt_mean          =  -4.0846946052226E-14
(PID.TID 0000.0001) // =======================================================
(PID.TID 0000.0001) // End MONITOR dynamic field statistics
(PID.TID 0000.0001) // =======================================================
(PID.TID 0000.0001) // =======================================================
(PID.TID 0000.0001) // Begin MONITOR dynamic field statistics
(PID.TID 0000.0001) // =======================================================
(PID.TID 0000.0001) %MON time_tsnumber                =                392040
(PID.TID 0000.0001) %MON time_secondsf                =   3.1363200000000E+07
(PID.TID 0000.0001) %MON dynstat_eta_max              =   2.1142337523451E-01
(PID.TID 0000.0001) %MON dynstat_eta_min              =  -1.3426444823029E-01
(PID.TID 0000.0001) %MON dynstat_eta_mean             =   2.3219384807014E-16
(PID.TID 0000.0001) %MON dynstat_eta_sd               =   6.2642900841902E-02
(PID.TID 0000.0001) %MON dynstat_eta_del2             =   1.3642930432775E-03
(PID.TID 0000.0001) %MON dynstat_uvel_max             =   1.1358747206239E-02
(PID.TID 0000.0001) %MON dynstat_uvel_min             =  -1.2400485019824E-02
(PID.TID 0000.0001) %MON dynstat_uvel_mean            =  -3.2899584286704E-12
(PID.TID 0000.0001) %MON dynstat_uvel_sd              =   1.4610633897043E-03
(PID.TID 0000.0001) %MON dynstat_uvel_del2            =   1.2474795293701E-05
(PID.TID 0000.0001) %MON dynstat_vvel_max             =   4.1318394201088E-03
(PID.TID 0000.0001) %MON dynstat_vvel_min             =  -4.8741067103913E-03
(PID.TID 0000.0001) %MON dynstat_vvel_mean            =   1.8315711037703E-12
(PID.TID 0000.0001) %MON dynstat_vvel_sd              =   4.2207228154427E-04
(PID.TID 0000.0001) %MON dynstat_vvel_del2            =   9.9978138281320E-06
(PID.TID 0000.0001) %MON dynstat_wvel_max             =   7.5466136387054E-04
(PID.TID 0000.0001) %MON dynstat_wvel_min             =  -1.3679173155001E-03
(PID.TID 0000.0001) %MON dynstat_wvel_mean            =   2.1711240553911E-12
(PID.TID 0000.0001) %MON dynstat_wvel_sd              =   5.4512267289800E-05
(PID.TID 0000.0001) %MON dynstat_wvel_del2            =   1.8034327701525E-06
(PID.TID 0000.0001) %MON dynstat_theta_max            =  -2.1010493220927E+00
(PID.TID 0000.0001) %MON dynstat_theta_min            =  -2.2572586238733E+00
(PID.TID 0000.0001) %MON dynstat_theta_mean           =  -2.1306622380570E+00
(PID.TID 0000.0001) %MON dynstat_theta_sd             =   3.0339632072847E-02
(PID.TID 0000.0001) %MON dynstat_theta_del2           =   3.7687217850803E-05
(PID.TID 0000.0001) %MON dynstat_salt_max             =   3.4499928802469E+01
(PID.TID 0000.0001) %MON dynstat_salt_min             =   3.4454364994549E+01
(PID.TID 0000.0001) %MON dynstat_salt_mean            =   3.4489130396032E+01
(PID.TID 0000.0001) %MON dynstat_salt_sd              =   1.1255128738415E-02
(PID.TID 0000.0001) %MON dynstat_salt_del2            =   2.4309131814599E-06
(PID.TID 0000.0001) %MON trAdv_CFL_u_max              =   5.0593612221508E-03
(PID.TID 0000.0001) %MON trAdv_CFL_v_max              =   4.6304013748718E-03
(PID.TID 0000.0001) %MON trAdv_CFL_w_max              =   9.9484895672738E-03
(PID.TID 0000.0001) %MON advcfl_uvel_max              =   4.3007511810309E-03
(PID.TID 0000.0001) %MON advcfl_vvel_max              =   4.6304013748718E-03
(PID.TID 0000.0001) %MON advcfl_wvel_max              =   9.9484895672738E-03
(PID.TID 0000.0001) %MON advcfl_W_hf_max              =   9.9484895672738E-03
(PID.TID 0000.0001) %MON pe_b_mean                    =   9.0309763967052E-05
(PID.TID 0000.0001) %MON ke_max                       =   3.8522211929928E-05
(PID.TID 0000.0001) %MON ke_mean                      =   1.1025255119264E-06
(PID.TID 0000.0001) %MON ke_vol                       =   1.8654725220387E+09
(PID.TID 0000.0001) %MON vort_r_min                   =  -1.4725575961040E-04
(PID.TID 0000.0001) %MON vort_r_max                   =   1.4725575961040E-04
(PID.TID 0000.0001) %MON vort_a_mean                  =   1.0000782634673E-04
(PID.TID 0000.0001) %MON vort_a_sd                    =   1.4907326426615E-05
(PID.TID 0000.0001) %MON vort_p_mean                  =   1.1991916022492E-04
(PID.TID 0000.0001) %MON vort_p_sd                    =   7.1356830588004E-05
(PID.TID 0000.0001) %MON surfExpan_theta_mean         =  -7.3374807350529E-14
(PID.TID 0000.0001) %MON surfExpan_salt_mean          =  -4.0805716455632E-14
(PID.TID 0000.0001) // =======================================================
(PID.TID 0000.0001) // End MONITOR dynamic field statistics
(PID.TID 0000.0001) // =======================================================
(PID.TID 0000.0001) %CHECKPOINT    394470 ckptA
(PID.TID 0000.0001)   Seconds in section "ALL                    [THE_MODEL_MAIN]":
(PID.TID 0000.0001)           User time:   5593.9667285308242
(PID.TID 0000.0001)         System time:   13.246530378237367
(PID.TID 0000.0001)     Wall clock time:   5607.6060261726379
(PID.TID 0000.0001)          No. starts:           1
(PID.TID 0000.0001)           No. stops:           1
(PID.TID 0000.0001)   Seconds in section "INITIALISE_FIXED       [THE_MODEL_MAIN]":
(PID.TID 0000.0001)           User time:   4.3685995042324066E-002
(PID.TID 0000.0001)         System time:   0.0000000000000000
(PID.TID 0000.0001)     Wall clock time:   4.4027805328369141E-002
(PID.TID 0000.0001)          No. starts:           1
(PID.TID 0000.0001)           No. stops:           1
(PID.TID 0000.0001)   Seconds in section "THE_MAIN_LOOP          [THE_MODEL_MAIN]":
(PID.TID 0000.0001)           User time:   5593.9230185300112
(PID.TID 0000.0001)         System time:   13.246524378657341
(PID.TID 0000.0001)     Wall clock time:   5607.5619661808014
(PID.TID 0000.0001)          No. starts:           1
(PID.TID 0000.0001)           No. stops:           1
(PID.TID 0000.0001)   Seconds in section "INITIALISE_VARIA    [THE_MAIN_LOOP]":
(PID.TID 0000.0001)           User time:   2.0810000598430634E-002
(PID.TID 0000.0001)         System time:   3.6930013447999954E-003
(PID.TID 0000.0001)     Wall clock time:   2.4503946304321289E-002
(PID.TID 0000.0001)          No. starts:           1
(PID.TID 0000.0001)           No. stops:           1
(PID.TID 0000.0001)   Seconds in section "MAIN LOOP           [THE_MAIN_LOOP]":
(PID.TID 0000.0001)           User time:   5593.9021905288100
(PID.TID 0000.0001)         System time:   13.242830378934741
(PID.TID 0000.0001)     Wall clock time:   5607.5374381542206
(PID.TID 0000.0001)          No. starts:           1
(PID.TID 0000.0001)           No. stops:           1
(PID.TID 0000.0001)   Seconds in section "MAIN_DO_LOOP        [THE_MAIN_LOOP]":
(PID.TID 0000.0001)           User time:   5591.3734719008207
(PID.TID 0000.0001)         System time:   13.233436513692141
(PID.TID 0000.0001)     Wall clock time:   5605.0394155979156
(PID.TID 0000.0001)          No. starts:      394470
(PID.TID 0000.0001)           No. stops:      394470
(PID.TID 0000.0001)   Seconds in section "FORWARD_STEP        [MAIN_DO_LOOP]":
(PID.TID 0000.0001)           User time:   5586.2519441246986
(PID.TID 0000.0001)         System time:   13.216061053797603
(PID.TID 0000.0001)     Wall clock time:   5599.8692667484283
(PID.TID 0000.0001)          No. starts:      394470
(PID.TID 0000.0001)           No. stops:      394470
(PID.TID 0000.0001)   Seconds in section "LOAD_FIELDS_DRIVER  [FORWARD_STEP]":
(PID.TID 0000.0001)           User time:   9.3474688231945038
(PID.TID 0000.0001)         System time:   3.7478569895029068E-002
(PID.TID 0000.0001)     Wall clock time:   9.4551765918731689
(PID.TID 0000.0001)          No. starts:      394470
(PID.TID 0000.0001)           No. stops:      394470
(PID.TID 0000.0001)   Seconds in section "EXTERNAL_FLDS_LOAD [LOAD_FLDS_DRIVER]":
(PID.TID 0000.0001)           User time:   4.1958165466785431
(PID.TID 0000.0001)         System time:   1.6998231410980225E-002
(PID.TID 0000.0001)     Wall clock time:   4.2820768356323242
(PID.TID 0000.0001)          No. starts:      394470
(PID.TID 0000.0001)           No. stops:      394470
(PID.TID 0000.0001)   Seconds in section "DO_ATMOSPHERIC_PHYS [FORWARD_STEP]":
(PID.TID 0000.0001)           User time:   2.5019374117255211
(PID.TID 0000.0001)         System time:   1.0973829776048660E-002
(PID.TID 0000.0001)     Wall clock time:   2.5351607799530029
(PID.TID 0000.0001)          No. starts:      394470
(PID.TID 0000.0001)           No. stops:      394470
(PID.TID 0000.0001)   Seconds in section "DO_OCEANIC_PHYS     [FORWARD_STEP]":
(PID.TID 0000.0001)           User time:   238.30993539839983
(PID.TID 0000.0001)         System time:   1.0614471156150103
(PID.TID 0000.0001)     Wall clock time:   239.46566343307495
(PID.TID 0000.0001)          No. starts:      394470
(PID.TID 0000.0001)           No. stops:      394470
(PID.TID 0000.0001)   Seconds in section "SHELFICE_THERMODYNAMICS [DO_OCEANIC_PHYS]":
(PID.TID 0000.0001)           User time:   7.9585914388298988
(PID.TID 0000.0001)         System time:   3.7034699693322182E-002
(PID.TID 0000.0001)     Wall clock time:   7.8941373825073242
(PID.TID 0000.0001)          No. starts:      394470
(PID.TID 0000.0001)           No. stops:      394470
(PID.TID 0000.0001)   Seconds in section "DYNAMICS            [FORWARD_STEP]":
(PID.TID 0000.0001)           User time:   1471.3099870607257
(PID.TID 0000.0001)         System time:   4.9472562633454800
(PID.TID 0000.0001)     Wall clock time:   1476.8353114128113
(PID.TID 0000.0001)          No. starts:      394470
(PID.TID 0000.0001)           No. stops:      394470
(PID.TID 0000.0001)   Seconds in section "UPDATE_SURF_DR      [FORWARD_STEP]":
(PID.TID 0000.0001)           User time:   39.511944219470024
(PID.TID 0000.0001)         System time:   7.4810314923524857E-002
(PID.TID 0000.0001)     Wall clock time:   39.786635398864746
(PID.TID 0000.0001)          No. starts:      394470
(PID.TID 0000.0001)           No. stops:      394470
(PID.TID 0000.0001)   Seconds in section "SOLVE_FOR_PRESSURE  [FORWARD_STEP]":
(PID.TID 0000.0001)           User time:   967.59803992509842
(PID.TID 0000.0001)         System time:   1.4342683069407940
(PID.TID 0000.0001)     Wall clock time:   969.30815386772156
(PID.TID 0000.0001)          No. starts:      394470
(PID.TID 0000.0001)           No. stops:      394470
(PID.TID 0000.0001)   Seconds in section "MOM_CORRECTION_STEP [FORWARD_STEP]":
(PID.TID 0000.0001)           User time:   75.841045781970024
(PID.TID 0000.0001)         System time:  0.13455010578036308
(PID.TID 0000.0001)     Wall clock time:   76.043275594711304
(PID.TID 0000.0001)          No. starts:      394470
(PID.TID 0000.0001)           No. stops:      394470
(PID.TID 0000.0001)   Seconds in section "INTEGR_CONTINUITY   [FORWARD_STEP]":
(PID.TID 0000.0001)           User time:   47.584059983491898
(PID.TID 0000.0001)         System time:  0.10772185772657394
(PID.TID 0000.0001)     Wall clock time:   47.752409934997559
(PID.TID 0000.0001)          No. starts:      394470
(PID.TID 0000.0001)           No. stops:      394470
(PID.TID 0000.0001)   Seconds in section "BLOCKING_EXCHANGES  [FORWARD_STEP]":
(PID.TID 0000.0001)           User time:   1186.5712826550007
(PID.TID 0000.0001)         System time:   2.2769325338304043
(PID.TID 0000.0001)     Wall clock time:   1189.3667910099030
(PID.TID 0000.0001)          No. starts:      788940
(PID.TID 0000.0001)           No. stops:      788940
(PID.TID 0000.0001)   Seconds in section "THERMODYNAMICS      [FORWARD_STEP]":
(PID.TID 0000.0001)           User time:   1488.2092063575983
(PID.TID 0000.0001)         System time:   2.9249669238924980
(PID.TID 0000.0001)     Wall clock time:   1492.1503417491913
(PID.TID 0000.0001)          No. starts:      394470
(PID.TID 0000.0001)           No. stops:      394470
(PID.TID 0000.0001)   Seconds in section "TRC_CORRECTION_STEP [FORWARD_STEP]":
(PID.TID 0000.0001)           User time:   3.1812234893441200
(PID.TID 0000.0001)         System time:   5.0013214349746704E-003
(PID.TID 0000.0001)     Wall clock time:   3.1450140476226807
(PID.TID 0000.0001)          No. starts:      394470
(PID.TID 0000.0001)           No. stops:      394470
(PID.TID 0000.0001)   Seconds in section "MONITOR             [FORWARD_STEP]":
(PID.TID 0000.0001)           User time:   2.9691787660121918
(PID.TID 0000.0001)         System time:   1.0013904422521591E-002
(PID.TID 0000.0001)     Wall clock time:   2.9793560504913330
(PID.TID 0000.0001)          No. starts:      394470
(PID.TID 0000.0001)           No. stops:      394470
(PID.TID 0000.0001)   Seconds in section "DO_THE_MODEL_IO     [FORWARD_STEP]":
(PID.TID 0000.0001)           User time:   3.0189619213342667
(PID.TID 0000.0001)         System time:   2.3505084216594696E-002
(PID.TID 0000.0001)     Wall clock time:   3.0763723850250244
(PID.TID 0000.0001)          No. starts:      394470
(PID.TID 0000.0001)           No. stops:      394470
(PID.TID 0000.0001)   Seconds in section "DO_WRITE_PICKUP     [FORWARD_STEP]":
(PID.TID 0000.0001)           User time:   4.7731574103236198
(PID.TID 0000.0001)         System time:   3.7076439708471298E-002
(PID.TID 0000.0001)     Wall clock time:   4.7945773601531982
(PID.TID 0000.0001)          No. starts:      394470
(PID.TID 0000.0001)           No. stops:      394470
(PID.TID 0000.0001) // ======================================================
(PID.TID 0000.0001) // Tile <-> Tile communication statistics
(PID.TID 0000.0001) // ======================================================
(PID.TID 0000.0001) // o Tile number: 000001
(PID.TID 0000.0001) //         No. X exchanges =              0
(PID.TID 0000.0001) //            Max. X spins =              0
(PID.TID 0000.0001) //            Min. X spins =     1000000000
(PID.TID 0000.0001) //          Total. X spins =              0
(PID.TID 0000.0001) //            Avg. X spins =       0.00E+00
(PID.TID 0000.0001) //         No. Y exchanges =              0
(PID.TID 0000.0001) //            Max. Y spins =              0
(PID.TID 0000.0001) //            Min. Y spins =     1000000000
(PID.TID 0000.0001) //          Total. Y spins =              0
(PID.TID 0000.0001) //            Avg. Y spins =       0.00E+00
(PID.TID 0000.0001) // o Thread number: 000001
(PID.TID 0000.0001) //            No. barriers =      206635264
(PID.TID 0000.0001) //      Max. barrier spins =              1
(PID.TID 0000.0001) //      Min. barrier spins =              1
(PID.TID 0000.0001) //     Total barrier spins =      206635264
(PID.TID 0000.0001) //      Avg. barrier spins =       1.00E+00
PROGRAM MAIN: Execution ended Normally
